aqu_catunit.ele: written by SWAT+ editor v3.0.1 on 2024-10-31 16:58 for SWAT+ rev.61.0.1
      id  name                   obj_typ  obj_typ_no      bsn_frac      sub_frac      reg_frac  
       1  aqu010                     aqu           1       0.08628       0.00000       0.00000  
       2  aqu020                     aqu           2       0.04688       0.00000       0.00000  
       3  aqu030                     aqu           3       0.05455       0.00000       0.00000  
       4  aqu040                     aqu           4       0.03515       0.00000       0.00000  
       5  aqu050                     aqu           5       0.08923       0.00000       0.00000  
       6  aqu060                     aqu           6       0.09388       0.00000       0.00000  
       7  aqu070                     aqu           7       0.06124       0.00000       0.00000  
       8  aqu080                     aqu           8       0.06106       0.00000       0.00000  
       9  aqu090                     aqu           9       0.12304       0.00000       0.00000  
      10  aqu100                     aqu          10       0.15252       0.00000       0.00000  
      11  aqu110                     aqu          11       0.08590       0.00000       0.00000  
      12  aqu120                     aqu          12       0.04226       0.00000       0.00000  
      13  aqu130                     aqu          13       0.06800       0.00000       0.00000  
      14  aqu_deep004                aqu          14       1.00000       0.00000       0.00000  
