aquifer.con: written by SWAT+ editor v3.0.1 on 2024-10-31 16:57 for SWAT+ rev.61.0.1
      id  name                gis_id          area           lat           lon          elev       aqu               wst       cst      ovfl      rule   out_tot       obj_typ    obj_id       hyd_typ          frac  
       1  aqu010                  10    7458.12000      41.87449       2.58792     479.31445         1      s41865n2664e         0         0         0         2           sdc        51           tot       1.00000           aqu        14           rhg       1.00000  
       2  aqu020                  20    4052.61000      41.84198       2.67915     110.03702         2      s41865n2664e         0         0         0         2           sdc        36           tot       1.00000           aqu        14           rhg       1.00000  
       3  aqu030                  30    4715.37000      41.77799       2.38152     594.16589         3      s41774n2438e         0         0         0         2           sdc        74           tot       1.00000           aqu        14           rhg       1.00000  
       4  aqu040                  40    3038.49000      41.69191       2.72625      28.19546         4      s41647n2757e         0         0         0         2           sdc         1           tot       1.00000           aqu        14           rhg       1.00000  
       5  aqu050                  50    7713.36000      41.68929       2.45237     193.47339         5      s41684n2446e         0         0         0         2           sdc        39           tot       1.00000           aqu        14           rhg       1.00000  
       6  aqu060                  60    8114.67000      41.71881       2.49050     288.76611         6      s41684n2446e         0         0         0         2           sdc        65           tot       1.00000           aqu        14           rhg       1.00000  
       7  aqu070                  70    5293.98000      41.74707       2.53172     217.99506         7      s41752n2558e         0         0         0         2           sdc        21           tot       1.00000           aqu        14           rhg       1.00000  
       8  aqu080                  80    5277.87000      41.71014       2.59781     192.81865         8      s41752n2558e         0         0         0         2           sdc        15           tot       1.00000           aqu        14           rhg       1.00000  
       9  aqu090                  90   10635.75000      41.81976       2.49785     378.72598         9      s41774n2438e         0         0         0         2           sdc        43           tot       1.00000           aqu        14           rhg       1.00000  
      10  aqu100                 100   13183.65000      41.79942       2.77828      97.91550        10      s41882n2743e         0         0         0         2           sdc        45           tot       1.00000           aqu        14           rhg       1.00000  
      11  aqu110                 110    7425.54000      41.80228       2.63194     297.37628        11      s41865n2664e         0         0         0         2           sdc        22           tot       1.00000           aqu        14           rhg       1.00000  
      12  aqu120                 120    3652.56000      41.74927       2.65792      51.33141        12      s41739n2694e         0         0         0         2           sdc         9           tot       1.00000           aqu        14           rhg       1.00000  
      13  aqu130                 130    5877.45000      41.71713       2.69951      55.10542        13      s41739n2694e         0         0         0         2           sdc       125           tot       1.00000           aqu        14           rhg       1.00000  
      14  aqu_deep004              4   86439.42000      41.77199       2.59398     242.41114        14      s41752n2558e         0         0         0         0  
