chandeg.con: written by SWAT+ editor v3.0.1 on 2024-10-31 16:57 for SWAT+ rev.61.0.1
      id  name                gis_id          area           lat           lon          elev      lcha               wst       cst      ovfl      rule   out_tot       obj_typ    obj_id       hyd_typ          frac  
       1  cha001                   1   86440.40960      41.67036       2.76407             0         1      s41647n2757e         0         0         0         0  
       2  cha002                   2   85087.89120      41.68857       2.74760             0         2      s41647n2757e         0         0         0         1           sdc         1           tot       1.00000  
       3  cha003                   3   83456.10240      41.69651       2.73531             0         3      s41647n2757e         0         0         0         1           sdc         2           tot       1.00000  
       4  cha004                   4   82430.36800      41.70270       2.72573             0         4      s41739n2694e         0         0         0         0  
       5  cha005                   5   81548.55040      41.70282       2.71906             0         5      s41739n2694e         0         0         0         1           sdc         4           tot       1.00000  
       6  cha006                   6   78692.30720      41.71145       2.71073             0         6      s41739n2694e         0         0         0         1           sdc         5           tot       1.00000  
       7  cha007                   7   78414.57280      41.72413       2.70273             0         7      s41739n2694e         0         0         0         1           sdc         6           tot       1.00000  
       8  cha008                   8   77643.62880      41.73343       2.69638             0         8      s41739n2694e         0         0         0         1           sdc         7           tot       1.00000  
       9  cha009                   9   77523.02720      41.74045       2.69238             0         9      s41739n2694e         0         0         0         1           sdc         8           tot       1.00000  
      10  cha010                  10   76507.28960      41.74070       2.68444             0        10      s41739n2694e         0         0         0         1           sdc         9           tot       1.00000  
      11  cha011                  11   75920.03840      41.74175       2.67433             0        11      s41739n2694e         0         0         0         1           sdc        10           tot       1.00000  
      12  cha012                  12   43734.96000      41.74362       2.66674             0        12      s41739n2694e         0         0         0         1           sdc        11           tot       1.00000  
      13  cha013                  13   42504.56960      41.73803       2.64964             0        13      s41739n2694e         0         0         0         1           sdc        12           tot       1.00000  
      14  cha014                  14   41997.33120      41.73216       2.63091             0        14      s41739n2694e         0         0         0         1           sdc        13           tot       1.00000  
      15  cha015                  15   41750.90880      41.73147       2.62532             0        15      s41739n2694e         0         0         0         1           sdc        14           tot       1.00000  
      16  cha016                  16   30533.04000      41.73132       2.62009             0        16      s41752n2558e         0         0         0         1           sdc        15           tot       1.00000  
      17  cha017                  17   28959.12000      41.73048       2.61234             0        17      s41752n2558e         0         0         0         1           sdc        16           tot       1.00000  
      18  cha018                  18   28304.99840      41.72923       2.60369             0        18      s41752n2558e         0         0         0         1           sdc        17           tot       1.00000  
      19  cha019                  19   26070.12000      41.72661       2.58784             0        19      s41752n2558e         0         0         0         1           sdc        18           tot       1.00000  
      20  cha020                  20   32121.27040      41.74485       2.66998             0        20      s41739n2694e         0         0         0         1           sdc        11           tot       1.00000  
      21  cha021                  21   25834.14080      41.72468       2.57631             0        21      s41752n2558e         0         0         0         1           sdc        19           tot       1.00000  
      22  cha022                  22   32119.20000      41.74769       2.67214             0        22      s41739n2694e         0         0         0         1           sdc        20           tot       1.00000  
      23  cha023                  23   22577.12960      41.72195       2.56965             0        23      s41752n2558e         0         0         0         1           sdc        21           tot       1.00000  
      24  cha024                  24   31861.44000      41.75377       2.67409             0        24      s41739n2694e         0         0         0         1           sdc        22           tot       1.00000  
      25  cha025                  25   21857.58080      41.71827       2.56012             0        25      s41752n2558e         0         0         0         1           sdc        23           tot       1.00000  
      26  cha026                  26   31660.92160      41.76647       2.67168             0        26      s41739n2694e         0         0         0         1           sdc        24           tot       1.00000  
      27  cha027                  27   20969.82080      41.71415       2.54482             0        27      s41752n2558e         0         0         0         1           sdc        25           tot       1.00000  
      28  cha028                  28   17946.80960      41.71073       2.53385             0        28      s41752n2558e         0         0         0         0  
      29  cha029                  29   17060.67040      41.70923       2.53097             0        29      s41752n2558e         0         0         0         1           sdc        28           tot       1.00000  
      30  cha030                  30   27317.88160      41.77999       2.67540             0        30      s41739n2694e         0         0         0         1           sdc        26           tot       1.00000  
      31  cha031                  31   16855.64960      41.70244       2.52057             0        31      s41752n2558e         0         0         0         1           sdc        29           tot       1.00000  
      32  cha032                  32   24858.36000      41.78989       2.69070             0        32      s41739n2694e         0         0         0         1           sdc        30           tot       1.00000  
      33  cha033                  33   11510.82000      41.79532       2.70078             0        33      s41739n2694e         0         0         0         1           sdc        32           tot       1.00000  
      34  cha034                  34   16251.48000      41.69469       2.51053             0        34      s41684n2446e         0         0         0         1           sdc        31           tot       1.00000  
      35  cha035                  35   13538.96960      41.69021       2.50480             0        35      s41684n2446e         0         0         0         1           sdc        34           tot       1.00000  
      36  cha036                  36   11510.64000      41.79912       2.70437             0        36      s41739n2694e         0         0         0         1           sdc        33           tot       1.00000  
      37  cha037                  37   12535.38000      41.68409       2.49511             0        37      s41684n2446e         0         0         0         1           sdc        35           tot       1.00000  
      38  cha038                  38   10019.07040      41.80589       2.71175             0        38      s41739n2694e         0         0         0         1           sdc        36           tot       1.00000  
      39  cha039                  39   12427.64960      41.68000       2.48829             0        39      s41684n2446e         0         0         0         1           sdc        37           tot       1.00000  
      40  cha040                  40    8766.36000      41.67986       2.48523             0        40      s41684n2446e         0         0         0         1           sdc        39           tot       1.00000  
      41  cha041                  41   11217.78000      41.74602       2.61207             0        41      s41752n2558e         0         0         0         1           sdc        15           tot       1.00000  
      42  cha042                  42    8167.40960      41.68384       2.46916             0        42      s41684n2446e         0         0         0         1           sdc        40           tot       1.00000  
      43  cha043                  43   10635.56960      41.76512       2.58976             0        43      s41752n2558e         0         0         0         1           sdc        41           tot       1.00000  
      44  cha044                  44   13184.46000      41.79506       2.70114             0        44      s41739n2694e         0         0         0         1           sdc        32           tot       1.00000  
      45  cha045                  45   13183.38000      41.79522       2.71143             0        45      s41739n2694e         0         0         0         1           sdc        44           tot       1.00000  
      46  cha046                  46    6943.23040      41.69603       2.44779             0        46      s41684n2446e         0         0         0         1           sdc        42           tot       1.00000  
      47  cha047                  47   12523.76960      41.79566       2.72497             0        47      s41739n2694e         0         0         0         1           sdc        45           tot       1.00000  
      48  cha048                  48   12133.98000      41.79580       2.72894             0        48      s41739n2694e         0         0         0         1           sdc        47           tot       1.00000  
      49  cha049                  49    3847.86000      41.77604       2.66640             0        49      s41739n2694e         0         0         0         1           sdc        26           tot       1.00000  
      50  cha050                  50    8078.04000      41.83433       2.68723             0        50      s41865n2664e         0         0         0         1           sdc        38           tot       1.00000  
      51  cha051                  51    7457.84960      41.85965       2.65855             0        51      s41865n2664e         0         0         0         1           sdc        50           tot       1.00000  
      52  cha052                  52   10762.56000      41.79555       2.73833             0        52      s41739n2694e         0         0         0         1           sdc        48           tot       1.00000  
      53  cha053                  53   10459.16960      41.79611       2.74844             0        53      s41739n2694e         0         0         0         1           sdc        52           tot       1.00000  
      54  cha054                  54   10120.04960      41.78408       2.56473             0        54      s41752n2558e         0         0         0         1           sdc        43           tot       1.00000  
      55  cha055                  55    5262.21000      41.79477       2.75314             0        55      s41739n2694e         0         0         0         1           sdc        53           tot       1.00000  
      56  cha056                  56    6776.00960      41.79847       2.54730             0        56      s41752n2558e         0         0         0         1           sdc        54           tot       1.00000  
      57  cha057                  57    6548.58000      41.79900       2.54513             0        57      s41752n2558e         0         0         0         1           sdc        56           tot       1.00000  
      58  cha058                  58    3576.60000      41.77667       2.65105             0        58      s41739n2694e         0         0         0         1           sdc        49           tot       1.00000  
      59  cha059                  59    5550.39000      41.86501       2.64443             0        59      s41865n2664e         0         0         0         1           sdc        51           tot       1.00000  
      60  cha060                  60    6343.56000      41.80411       2.53931             0        60      s41752n2558e         0         0         0         1           sdc        57           tot       1.00000  
      61  cha061                  61    3242.70000      41.72561       2.57306             0        61      s41752n2558e         0         0         0         1           sdc        21           tot       1.00000  
      62  cha062                  62    2654.64000      41.78136       2.63857             0        62      s41739n2694e         0         0         0         1           sdc        58           tot       1.00000  
      63  cha063                  63    2726.73000      41.72857       2.57033             0        63      s41752n2558e         0         0         0         1           sdc        61           tot       1.00000  
      64  cha064                  64    2794.77000      41.78967       2.76760             0        64      s41739n2694e         0         0         0         1           sdc        55           tot       1.00000  
      65  cha065                  65    2596.59000      41.71395       2.52878             0        65      s41752n2558e         0         0         0         0  
      66  cha066                  66    5806.89000      41.81177       2.52788             0        66      s41752n2558e         0         0         0         1           sdc        60           tot       1.00000  
      67  cha067                  67    4512.15000      41.87317       2.61907             0        67      s41865n2664e         0         0         0         1           sdc        59           tot       1.00000  
      68  cha068                  68    2048.85000      41.78619       2.78422             0        68      s41739n2694e         0         0         0         1           sdc        64           tot       1.00000  
      69  cha069                  69    2334.69000      41.79675       2.67947             0        69      s41739n2694e         0         0         0         1           sdc        30           tot       1.00000  
      70  cha070                  70    6339.15000      41.72562       2.42120             0        70      s41684n2446e         0         0         0         1           sdc        46           tot       1.00000  
      71  cha071                  71    1847.70000      41.78675       2.79361             0        71      s41882n2743e         0         0         0         1           sdc        68           tot       1.00000  
      72  cha072                  72    4930.47000      41.74970       2.40006             0        72      s41774n2438e         0         0         0         1           sdc        70           tot       1.00000  
      73  cha073                  73    2200.59000      41.80737       2.54398             0        73      s41752n2558e         0         0         0         1           sdc        54           tot       1.00000  
      74  cha074                  74    4714.38000      41.75346       2.39569             0        74      s41774n2438e         0         0         0         1           sdc        72           tot       1.00000  
      75  cha075                  75    2550.15000      41.69691       2.49213             0        75      s41684n2446e         0         0         0         1           sdc        34           tot       1.00000  
      76  cha076                  76    5192.10000      41.80221       2.75365             0        76      s41882n2743e         0         0         0         1           sdc        53           tot       1.00000  
      77  cha077                  77    3914.37000      41.87122       2.60047             0        77      s41865n2664e         0         0         0         1           sdc        67           tot       1.00000  
      78  cha078                  78    3659.04000      41.67566       2.48382             0        78      s41684n2446e         0         0         0         1           sdc        39           tot       1.00000  
      79  cha079                  79    1600.74000      41.69017       2.73786             0        79      s41647n2757e         0         0         0         1           sdc         2           tot       1.00000  
      80  cha080                  80    4490.73000      41.81642       2.50888             0        80      s41752n2558e         0         0         0         1           sdc        66           tot       1.00000  
      81  cha081                  81    1686.06000      41.81282       2.67397             0        81      s41865n2664e         0         0         0         1           sdc        69           tot       1.00000  
      82  cha082                  82    1857.42000      41.81523       2.71712             0        82      s41882n2743e         0         0         0         1           sdc        38           tot       1.00000  
      83  cha083                  83    2119.59000      41.79254       2.62677             0        83      s41752n2558e         0         0         0         1           sdc        62           tot       1.00000  
      84  cha084                  84    4421.79000      41.75789       2.39060             0        84      s41774n2438e         0         0         0         1           sdc        74           tot       1.00000  
      85  cha085                  85    2459.70000      41.78777       2.76165             0        85      s41739n2694e         0         0         0         1           sdc        55           tot       1.00000  
      86  cha086                  86    2825.28000      41.70347       2.70824             0        86      s41739n2694e         0         0         0         1           sdc         5           tot       1.00000  
      87  cha087                  87    1907.28000      41.86856       2.65579             0        87      s41865n2664e         0         0         0         1           sdc        51           tot       1.00000  
      88  cha088                  88    3380.94000      41.86523       2.58894             0        88      s41865n2664e         0         0         0         1           sdc        77           tot       1.00000  
      89  cha089                  89    2113.20000      41.70521       2.69939             0        89      s41739n2694e         0         0         0         1           sdc        86           tot       1.00000  
      90  cha090                  90    3625.65000      41.76730       2.38257             0        90      s41774n2438e         0         0         0         1           sdc        84           tot       1.00000  
      91  cha091                  91    2494.35000      41.81480       2.76715             0        91      s41882n2743e         0         0         0         1           sdc        76           tot       1.00000  
      92  cha092                  92    1916.10000      41.74888       2.54656             0        92      s41752n2558e         0         0         0         1           sdc        63           tot       1.00000  
      93  cha093                  93    3260.34000      41.82266       2.48427             0        93      s41774n2438e         0         0         0         1           sdc        80           tot       1.00000  
      94  cha094                  94    2385.27000      41.81760       2.75034             0        94      s41882n2743e         0         0         0         1           sdc        76           tot       1.00000  
      95  cha095                  95    1923.48000      41.77404       2.37980             0        95      s41774n2438e         0         0         0         1           sdc        90           tot       1.00000  
      96  cha096                  96    1333.53000      41.70248       2.68985             0        96      s41739n2694e         0         0         0         1           sdc        89           tot       1.00000  
      97  cha097                  97    2581.83000      41.82746       2.47123             0        97      s41840n2419e         0         0         0         1           sdc        93           tot       1.00000  
      98  cha098                  98    1210.32000      41.74509       2.66187             0        98      s41739n2694e         0         0         0         1           sdc        12           tot       1.00000  
      99  cha099                  99    1368.54000      41.80274       2.60739             0        99      s41752n2558e         0         0         0         1           sdc        83           tot       1.00000  
     100  cha100                 100    1439.19000      41.72210       2.61275             0       100      s41752n2558e         0         0         0         1           sdc        16           tot       1.00000  
     101  cha101                 101    1702.44000      41.67091       2.47828             0       101      s41684n2446e         0         0         0         1           sdc        78           tot       1.00000  
     102  cha102                 102    1732.50000      41.82455       2.78012             0       102      s41882n2743e         0         0         0         1           sdc        91           tot       1.00000  
     103  cha103                 103    1026.99000      41.82726       2.78372             0       103      s41882n2743e         0         0         0         1           sdc       102           tot       1.00000  
     104  cha104                 104    1370.43000      41.85870       2.57524             0       104      s41865n2664e         0         0         0         1           sdc        88           tot       1.00000  
     105  cha105                 105    1202.22000      41.77094       2.52168             0       105      s41752n2558e         0         0         0         1           sdc        92           tot       1.00000  
     106  cha106                 106     785.16000      41.81607       2.49209             0       106      s41774n2438e         0         0         0         1           sdc        80           tot       1.00000  
     107  cha107                 107    1763.37000      41.86531       2.57231             0       107      s41865n2664e         0         0         0         1           sdc        88           tot       1.00000  
     108  cha108                 108     935.28000      41.69009       2.44820             0       108      s41684n2446e         0         0         0         1           sdc        42           tot       1.00000  
     109  cha109                 109    1335.87000      41.66926       2.47288             0       109      s41684n2446e         0         0         0         1           sdc       101           tot       1.00000  
     110  cha110                 110    1220.85000      41.68925       2.75174             0       110      s41647n2757e         0         0         0         1           sdc         1           tot       1.00000  
     111  cha111                 111     771.93000      41.66843       2.46856             0       111      s41684n2446e         0         0         0         1           sdc       109           tot       1.00000  
     112  cha112                 112     895.86000      41.77713       2.51694             0       112      s41752n2558e         0         0         0         1           sdc       105           tot       1.00000  
     113  cha113                 113    1637.91000      41.77491       2.39026             0       113      s41774n2438e         0         0         0         1           sdc        95           tot       1.00000  
     114  cha114                 114     961.74000      41.70858       2.60851             0       114      s41752n2558e         0         0         0         1           sdc       100           tot       1.00000  
     115  cha115                 115    1021.41000      41.70695       2.47149             0       115      s41684n2446e         0         0         0         1           sdc        75           tot       1.00000  
     116  cha116                 116     665.82000      41.87936       2.65248             0       116      s41865n2664e         0         0         0         1           sdc        87           tot       1.00000  
     117  cha117                 117    1262.97000      41.83419       2.73854             0       117      s41882n2743e         0         0         0         1           sdc        94           tot       1.00000  
     118  cha118                 118    1371.24000      41.78069       2.73821             0       118      s41739n2694e         0         0         0         1           sdc        48           tot       1.00000  
     119  cha119                 119    1039.68000      41.77646       2.78588             0       119      s41739n2694e         0         0         0         1           sdc        85           tot       1.00000  
     120  cha120                 120     789.39000      41.74871       2.65138             0       120      s41739n2694e         0         0         0         1           sdc        98           tot       1.00000  
     121  cha121                 121    1511.19000      41.77386       2.37150             0       121      s41774n2438e         0         0         0         1           sdc        90           tot       1.00000  
     122  cha122                 122    1620.18000      41.83661       2.52499             0       122      s41752n2558e         0         0         0         1           sdc        73           tot       1.00000  
     123  cha123                 123     639.36000      41.82794       2.78679             0       123      s41882n2743e         0         0         0         1           sdc       102           tot       1.00000  
     124  cha124                 124    1349.73000      41.82057       2.64539             0       124      s41865n2664e         0         0         0         1           sdc        81           tot       1.00000  
     125  cha125                 125     970.83000      41.71367       2.73542             0       125      s41739n2694e         0         0         0         0  
     126  cha126                 126    1195.20000      41.83965       2.70364             0       126      s41865n2664e         0         0         0         1           sdc        82           tot       1.00000  
     127  cha127                 127    1843.92000      41.65949       2.49422             0       127      s41684n2446e         0         0         0         1           sdc        78           tot       1.00000  
     128  cha128                 128     841.14000      41.83335       2.79147             0       128      s41882n2743e         0         0         0         1           sdc       103           tot       1.00000  
     129  cha129                 129    1552.59000      41.82523       2.45697             0       129      s41840n2419e         0         0         0         1           sdc        97           tot       1.00000  
     130  cha130                 130    1978.65000      41.70325       2.59105             0       130      s41752n2558e         0         0         0         1           sdc        18           tot       1.00000  
     131  cha131                 131     731.16000      41.69710       2.75676             0       131      s41647n2757e         0         0         0         1           sdc       110           tot       1.00000  
     132  cha132                 132     613.26000      41.83191       2.74649             0       132      s41882n2743e         0         0         0         1           sdc        94           tot       1.00000  
     133  cha133                 133     689.85000      41.64700       2.51143             0       133      s41620n2445e         0         0         0         1           sdc       127           tot       1.00000  
     134  cha134                 134     962.10000      41.82165       2.44183             0       134      s41840n2419e         0         0         0         1           sdc       129           tot       1.00000  
     135  cha135                 135    1160.91000      41.78052       2.40410             0       135      s41774n2438e         0         0         0         1           sdc       113           tot       1.00000  
     136  cha136                 136     619.11000      41.78087       2.50500             0       136      s41752n2558e         0         0         0         1           sdc       112           tot       1.00000  
     137  cha137                 137    1158.30000      41.87333       2.55093             0       137      s41865n2664e         0         0         0         1           sdc       107           tot       1.00000  
     138  cha138                 138    1128.78000      41.88631       2.63002             0       138      s41865n2664e         0         0         0         1           sdc        87           tot       1.00000  