hmd.cli: Relative humidity file names - file written by SWAT+ editor 2024-07-19 18:08:05.983276
filename
Dosrius_h.hmd
Fogars_h.hmd
Malgrat_h.hmd
PSesolles_h.hmd
StColo_h.hmd
StHilari_h.hmd
Tagam_h.hmd
Viladrau_h.hmd
Vilobi_h.hmd
