hru.con: written by SWAT+ editor v3.0.1 on 2024-10-31 16:57 for SWAT+ rev.61.0.1
      id  name                gis_id          area           lat           lon          elev       hru               wst       cst      ovfl      rule   out_tot  
       1  hru00001                 1       4.41000      41.90481       2.62812     372.81633         1      s41865n2664e         0         0         0         0  
       2  hru00002                 2      26.64000      41.90771       2.62072     531.34122         2      s41865n2664e         0         0         0         0  
       3  hru00003                 3       8.19000      41.90549       2.62462     453.31868         3      s41865n2664e         0         0         0         0  
       4  hru00004                 4       5.13000      41.90614       2.62457     427.49123         4      s41865n2664e         0         0         0         0  
       5  hru00005                 5       2.25000      41.90400       2.62984     347.04000         5      s41865n2664e         0         0         0         0  
       6  hru00006                 6       4.23000      41.89436       2.64888     233.51064         6      s41865n2664e         0         0         0         0  
       7  hru00007                 7       2.88000      41.89565       2.64648     260.75000         7      s41865n2664e         0         0         0         0  
       8  hru00008                 8       3.96000      41.89383       2.64857     246.36364         8      s41865n2664e         0         0         0         0  
       9  hru00009                 9       2.97000      41.89803       2.64069     305.21212         9      s41865n2664e         0         0         0         0  
      10  hru00010                10       3.15000      41.89421       2.64901     239.88571        10      s41865n2664e         0         0         0         0  
      11  hru00011                11       1.53000      41.88665       2.65468     188.29412        11      s41865n2664e         0         0         0         0  
      12  hru00012                12       0.18000      41.88882       2.65568     207.50000        12      s41865n2664e         0         0         0         0  
      13  hru00013                13       0.72000      41.88582       2.65493     189.37500        13      s41865n2664e         0         0         0         0  
      14  hru00014                14       0.27000      41.88599       2.65690     222.00000        14      s41865n2664e         0         0         0         0  
      15  hru00015                15       0.54000      41.88351       2.65692     212.33333        15      s41865n2664e         0         0         0         0  
      16  hru00016                16       0.09000      41.88626       2.65751     222.00000        16      s41865n2664e         0         0         0         0  
      17  hru00017                17       8.46000      41.90484       2.62871     404.53191        17      s41865n2664e         0         0         0         0  
      18  hru00018                18      21.51000      41.90454       2.63000     411.55230        18      s41865n2664e         0         0         0         0  
      19  hru00019                19      80.91000      41.90744       2.62613     482.37375        19      s41865n2664e         0         0         0         0  
      20  hru00020                20       2.61000      41.90334       2.63079     360.24138        20      s41865n2664e         0         0         0         0  
      21  hru00021                21       0.81000      41.90177       2.63436     310.00000        21      s41865n2664e         0         0         0         0  
      22  hru00022                22      11.34000      41.89656       2.64520     286.92857        22      s41865n2664e         0         0         0         0  
      23  hru00023                23      14.04000      41.89543       2.64623     275.80769        23      s41865n2664e         0         0         0         0  
      24  hru00024                24       4.50000      41.89418       2.64798     247.40000        24      s41865n2664e         0         0         0         0  
      25  hru00025                25      13.95000      41.89454       2.64762     263.11613        25      s41865n2664e         0         0         0         0  
      26  hru00026                26       3.33000      41.89379       2.64846     237.10811        26      s41865n2664e         0         0         0         0  
      27  hru00027                27       1.08000      41.88450       2.65414     184.83333        27      s41865n2664e         0         0         0         0  
      28  hru00028                28       1.35000      41.88613       2.65423     186.40000        28      s41865n2664e         0         0         0         0  
      29  hru00029                29       0.72000      41.88744       2.65524     208.12500        29      s41865n2664e         0         0         0         0  
      30  hru00030                30       0.45000      41.88588       2.65440     192.80000        30      s41865n2664e         0         0         0         0  
      31  hru00031                31       0.36000      41.88564       2.65389     197.50000        31      s41865n2664e         0         0         0         0  
      32  hru00032                32       0.45000      41.88842       2.65641     223.80000        32      s41865n2664e         0         0         0         0  
      33  hru00033                33       0.90000      41.88428       2.65546     201.40000        33      s41865n2664e         0         0         0         0  
      34  hru00034                34       1.98000      41.88324       2.65629     202.13636        34      s41865n2664e         0         0         0         0  
      35  hru00035                35       0.18000      41.88207       2.65644     198.50000        35      s41865n2664e         0         0         0         0  
      36  hru00036                36       3.15000      41.90319       2.63280     391.40000        36      s41865n2664e         0         0         0         0  
      37  hru00037                37      10.89000      41.90799       2.62454     515.48760        37      s41865n2664e         0         0         0         0  
      38  hru00038                38       1.26000      41.90465       2.62909     430.35714        38      s41865n2664e         0         0         0         0  
      39  hru00039                39       0.09000      41.90213       2.63174     318.00000        39      s41865n2664e         0         0         0         0  
      40  hru00040                40       0.09000      41.90132       2.63428     302.00000        40      s41865n2664e         0         0         0         0  
      41  hru00041                41       6.57000      41.89243       2.64894     256.01370        41      s41865n2664e         0         0         0         0  
      42  hru00042                42       1.44000      41.89563       2.64582     286.75000        42      s41865n2664e         0         0         0         0  
      43  hru00043                43       8.91000      41.89129       2.65005     251.63636        43      s41865n2664e         0         0         0         0  
      44  hru00044                44       3.60000      41.89159       2.65079     244.47500        44      s41865n2664e         0         0         0         0  
      45  hru00045                45       0.99000      41.89155       2.65113     227.63636        45      s41865n2664e         0         0         0         0  
      46  hru00046                46       2.43000      41.88476       2.65429     185.74074        46      s41865n2664e         0         0         0         0  
      47  hru00047                47       1.35000      41.88609       2.65432     188.60000        47      s41865n2664e         0         0         0         0  
      48  hru00048                48       1.35000      41.88560       2.65387     204.93333        48      s41865n2664e         0         0         0         0  
      49  hru00049                49       0.36000      41.88700       2.65470     207.75000        49      s41865n2664e         0         0         0         0  
      50  hru00050                50       0.99000      41.88453       2.65390     188.45455        50      s41865n2664e         0         0         0         0  
      51  hru00051                51       4.59000      41.88308       2.65577     196.98039        51      s41865n2664e         0         0         0         0  
      52  hru00052                52       2.52000      41.88425       2.65611     206.46429        52      s41865n2664e         0         0         0         0  
      53  hru00053                53       0.36000      41.88167       2.65717     205.00000        53      s41865n2664e         0         0         0         0  
      54  hru00054                54       0.63000      41.90040       2.63537     356.57143        54      s41865n2664e         0         0         0         0  
      55  hru00055                55       0.27000      41.90188       2.63970     334.66667        55      s41865n2664e         0         0         0         0  
      56  hru00056                56       0.09000      41.90215       2.63970     334.00000        56      s41865n2664e         0         0         0         0  
      57  hru00057                57       1.08000      41.90034       2.63624     355.33333        57      s41865n2664e         0         0         0         0  
      58  hru00058                58       2.16000      41.89371       2.65174     246.37500        58      s41865n2664e         0         0         0         0  
      59  hru00059                59       3.51000      41.89256       2.65133     246.58974        59      s41865n2664e         0         0         0         0  
      60  hru00060                60       0.27000      41.89382       2.65349     254.66667        60      s41865n2664e         0         0         0         0  
      61  hru00061                61       1.35000      41.89254       2.65321     245.73333        61      s41865n2664e         0         0         0         0  
      62  hru00062                62       0.27000      41.89121       2.65447     221.33333        62      s41865n2664e         0         0         0         0  
      63  hru00063                63       0.27000      41.88923       2.65520     202.33333        63      s41865n2664e         0         0         0         0  
      64  hru00064                64       0.36000      41.88335       2.65382     180.00000        64      s41865n2664e         0         0         0         0  
      65  hru00065                65       1.71000      41.88437       2.65636     209.21053        65      s41865n2664e         0         0         0         0  
      66  hru00066                66       1.98000      41.88434       2.65642     203.72727        66      s41865n2664e         0         0         0         0  
      67  hru00067                67       0.27000      41.90079       2.63766     348.00000        67      s41865n2664e         0         0         0         0  
      68  hru00068                68       0.09000      41.90077       2.63066     371.00000        68      s41865n2664e         0         0         0         0  
      69  hru00069                69       0.18000      41.90037       2.63139     361.00000        69      s41865n2664e         0         0         0         0  
      70  hru00070                70       0.09000      41.89996       2.63175     365.00000        70      s41865n2664e         0         0         0         0  
      71  hru00071                71       0.18000      41.89369       2.65457     245.00000        71      s41865n2664e         0         0         0         0  
      72  hru00072                72       1.35000      41.89129       2.65133     246.80000        72      s41865n2664e         0         0         0         0  
      73  hru00073                73       2.16000      41.89245       2.65152     248.70833        73      s41865n2664e         0         0         0         0  
      74  hru00074                74       0.99000      41.89175       2.65281     238.45455        74      s41865n2664e         0         0         0         0  
      75  hru00075                75       0.18000      41.89018       2.65604     227.00000        75      s41865n2664e         0         0         0         0  
      76  hru00076                76       0.09000      41.88950       2.65568     205.00000        76      s41865n2664e         0         0         0         0  
      77  hru00077                77       0.27000      41.88716       2.65521     196.00000        77      s41865n2664e         0         0         0         0  
      78  hru00078                78       0.27000      41.88779       2.65521     191.00000        78      s41865n2664e         0         0         0         0  
      79  hru00079                79       0.90000      41.88472       2.65665     211.90000        79      s41865n2664e         0         0         0         0  
      80  hru00080                80       0.81000      41.88497       2.65683     210.55556        80      s41865n2664e         0         0         0         0  
      81  hru00081                81       0.09000      41.88680       2.65750     226.00000        81      s41865n2664e         0         0         0         0  
      82  hru00082                82       0.09000      41.88329       2.65644     213.00000        82      s41865n2664e         0         0         0         0  
      83  hru00083                83       0.90000      41.89076       2.65332     230.10000        83      s41865n2664e         0         0         0         0  
      84  hru00084                84       1.26000      41.89011       2.65333     227.64286        84      s41865n2664e         0         0         0         0  
      85  hru00085                85       0.54000      41.89071       2.65350     224.83333        85      s41865n2664e         0         0         0         0  
      86  hru00086                86       0.36000      41.89050       2.65242     229.50000        86      s41865n2664e         0         0         0         0  
      87  hru00087                87       0.09000      41.88896       2.65460     214.00000        87      s41865n2664e         0         0         0         0  
      88  hru00088                88       0.18000      41.88639       2.65497     202.00000        88      s41865n2664e         0         0         0         0  
      89  hru00089                89       0.09000      41.88950       2.65532     215.00000        89      s41865n2664e         0         0         0         0  
      90  hru00090                90       0.18000      41.88869       2.65514     197.00000        90      s41865n2664e         0         0         0         0  
      91  hru00091                91       0.81000      41.88449       2.65719     215.22222        91      s41865n2664e         0         0         0         0  
      92  hru00092                92       0.09000      41.88572       2.65715     220.00000        92      s41865n2664e         0         0         0         0  
      93  hru00093                93       0.36000      41.88423       2.65643     208.25000        93      s41865n2664e         0         0         0         0  
      94  hru00094                94       0.09000      41.88518       2.65787     218.00000        94      s41865n2664e         0         0         0         0  
      95  hru00095                95       0.09000      41.89353       2.64662     286.00000        95      s41865n2664e         0         0         0         0  
      96  hru00096                96       0.36000      41.89179       2.65178     244.00000        96      s41865n2664e         0         0         0         0  
      97  hru00097                97       0.18000      41.88842       2.65442     223.00000        97      s41865n2664e         0         0         0         0  
      98  hru00098                98       0.09000      41.88544       2.65209     217.00000        98      s41865n2664e         0         0         0         0  
      99  hru00099                99       0.18000      41.88963       2.65514     218.50000        99      s41865n2664e         0         0         0         0  
     100  hru00100               100       0.09000      41.88923       2.65496     213.00000       100      s41865n2664e         0         0         0         0  
     101  hru00101               101       0.18000      41.88342       2.65680     208.00000       101      s41865n2664e         0         0         0         0  
     102  hru00102               102       0.99000      41.88934       2.65223     237.81818       102      s41865n2664e         0         0         0         0  
     103  hru00103               103       0.27000      41.89094       2.65386     211.66667       103      s41865n2664e         0         0         0         0  
     104  hru00104               104       1.08000      41.88881       2.65219     239.00000       104      s41865n2664e         0         0         0         0  
     105  hru00105               105       0.36000      41.88322       2.65562     199.00000       105      s41865n2664e         0         0         0         0  
     106  hru00106               106       0.09000      41.88328       2.65427     186.00000       106      s41865n2664e         0         0         0         0  
     107  hru00107               107       4.05000      41.90896       2.60133     679.82222       107      s41865n2664e         0         0         0         0  
     108  hru00108               108      11.25000      41.90905       2.59909     670.18400       108      s41865n2664e         0         0         0         0  
     109  hru00109               109       3.06000      41.90714       2.60125     601.35294       109      s41865n2664e         0         0         0         0  
     110  hru00110               110       1.80000      41.90532       2.60129     515.30000       110      s41865n2664e         0         0         0         0  
     111  hru00111               111       0.63000      41.90384       2.60295     483.14286       111      s41865n2664e         0         0         0         0  
     112  hru00112               112      18.72000      41.90425       2.58880     653.83173       112      s41865n2664e         0         0         0         0  
     113  hru00113               113      51.75000      41.90419       2.58969     644.98435       113      s41865n2664e         0         0         0         0  
     114  hru00114               114       8.46000      41.90435       2.59060     613.52128       114      s41865n2664e         0         0         0         0  
     115  hru00115               115       7.20000      41.90393       2.59454     542.16250       115      s41865n2664e         0         0         0         0  
     116  hru00116               116       3.06000      41.90291       2.59680     507.11765       116      s41865n2664e         0         0         0         0  
     117  hru00117               117       0.18000      41.89663       2.60537     389.00000       117      s41865n2664e         0         0         0         0  
     118  hru00118               118       0.36000      41.89677       2.60555     389.75000       118      s41865n2664e         0         0         0         0  
     119  hru00119               119       0.27000      41.89726       2.60537     404.00000       119      s41865n2664e         0         0         0         0  
     120  hru00120               120       1.89000      41.90742       2.59916     635.71429       120      s41865n2664e         0         0         0         0  
     121  hru00121               121       8.55000      41.90742       2.59980     628.98947       121      s41865n2664e         0         0         0         0  
     122  hru00122               122       0.54000      41.90572       2.60092     589.83333       122      s41865n2664e         0         0         0         0  
     123  hru00123               123       0.27000      41.90320       2.60256     490.66667       123      s41865n2664e         0         0         0         0  
     124  hru00124               124       2.79000      41.90190       2.59736     538.96774       124      s41865n2664e         0         0         0         0  
     125  hru00125               125       0.45000      41.90164       2.60064     495.20000       125      s41865n2664e         0         0         0         0  
     126  hru00126               126       3.51000      41.90450       2.59483     576.28205       126      s41865n2664e         0         0         0         0  
     127  hru00127               127       1.62000      41.90237       2.59660     545.27778       127      s41865n2664e         0         0         0         0  
     128  hru00128               128       9.45000      41.90578       2.60256     579.70476       128      s41865n2664e         0         0         0         0  
     129  hru00129               129      79.65000      41.90706       2.60278     622.05763       129      s41865n2664e         0         0         0         0  
     130  hru00130               130       2.43000      41.90521       2.60419     547.14815       130      s41865n2664e         0         0         0         0  
     131  hru00131               131       0.81000      41.90449       2.60307     511.22222       131      s41865n2664e         0         0         0         0  
     132  hru00132               132       0.27000      41.90365       2.60135     505.33333       132      s41865n2664e         0         0         0         0  
     133  hru00133               133      17.55000      41.90188       2.59475     574.73846       133      s41865n2664e         0         0         0         0  
     134  hru00134               134      31.23000      41.90192       2.59698     554.16427       134      s41865n2664e         0         0         0         0  
     135  hru00135               135       6.12000      41.90124       2.59761     527.73529       135      s41865n2664e         0         0         0         0  
     136  hru00136               136       0.81000      41.90023       2.60362     442.88889       136      s41865n2664e         0         0         0         0  
     137  hru00137               137       1.44000      41.89988       2.60169     467.43750       137      s41865n2664e         0         0         0         0  
     138  hru00138               138       0.63000      41.89656       2.60496     410.14286       138      s41865n2664e         0         0         0         0  
     139  hru00139               139       0.27000      41.89672       2.60513     398.33333       139      s41865n2664e         0         0         0         0  
     140  hru00140               140       0.72000      41.89603       2.60538     389.00000       140      s41865n2664e         0         0         0         0  
     141  hru00141               141       0.63000      41.89609       2.60569     391.85714       141      s41865n2664e         0         0         0         0  
     142  hru00142               142       0.18000      41.90375       2.59267     617.50000       142      s41865n2664e         0         0         0         0  
     143  hru00143               143       0.45000      41.90071       2.59594     581.60000       143      s41865n2664e         0         0         0         0  
     144  hru00144               144       1.98000      41.90495       2.59169     600.77273       144      s41865n2664e         0         0         0         0  
     145  hru00145               145       0.09000      41.90927       2.58685     701.00000       145      s41865n2664e         0         0         0         0  
     146  hru00146               146       0.09000      41.89877       2.59740     578.00000       146      s41865n2664e         0         0         0         0  
     147  hru00147               147      46.89000      41.90374       2.61956     501.32821       147      s41865n2664e         0         0         0         0  
     148  hru00148               148      15.57000      41.90211       2.62186     429.26012       148      s41865n2664e         0         0         0         0  
     149  hru00149               149       7.11000      41.90242       2.62137     429.46835       149      s41865n2664e         0         0         0         0  
     150  hru00150               150       4.23000      41.90177       2.62229     402.63830       150      s41865n2664e         0         0         0         0  
     151  hru00151               151       0.63000      41.90086       2.62255     376.57143       151      s41865n2664e         0         0         0         0  
     152  hru00152               152      60.75000      41.89135       2.63793     288.99852       152      s41865n2664e         0         0         0         0  
     153  hru00153               153      33.03000      41.89087       2.63857     279.80654       153      s41865n2664e         0         0         0         0  
     154  hru00154               154       6.12000      41.88958       2.64081     234.23529       154      s41865n2664e         0         0         0         0  
     155  hru00155               155      16.74000      41.88988       2.63991     258.62903       155      s41865n2664e         0         0         0         0  
     156  hru00156               156      33.48000      41.89309       2.63564     305.77688       156      s41865n2664e         0         0         0         0  
     157  hru00157               157       0.27000      41.88282       2.65078     172.66667       157      s41865n2664e         0         0         0         0  
     158  hru00158               158       0.27000      41.88228       2.65078     178.00000       158      s41865n2664e         0         0         0         0  
     159  hru00159               159       0.09000      41.88192       2.65174     173.00000       159      s41865n2664e         0         0         0         0  
     160  hru00160               160       1.71000      41.90382       2.61844     516.00000       160      s41865n2664e         0         0         0         0  
     161  hru00161               161       0.54000      41.90402       2.61901     521.16667       161      s41865n2664e         0         0         0         0  
     162  hru00162               162       0.81000      41.90069       2.62391     390.55556       162      s41865n2664e         0         0         0         0  
     163  hru00163               163       1.35000      41.89912       2.62551     332.66667       163      s41865n2664e         0         0         0         0  
     164  hru00164               164       0.90000      41.89900       2.62557     327.90000       164      s41865n2664e         0         0         0         0  
     165  hru00165               165       3.69000      41.89434       2.63302     300.51220       165      s41865n2664e         0         0         0         0  
     166  hru00166               166       2.70000      41.89162       2.63756     271.13333       166      s41865n2664e         0         0         0         0  
     167  hru00167               167       4.23000      41.89023       2.64029     231.59574       167      s41865n2664e         0         0         0         0  
     168  hru00168               168       4.32000      41.89099       2.63920     245.47917       168      s41865n2664e         0         0         0         0  
     169  hru00169               169       4.05000      41.89016       2.64013     249.71111       169      s41865n2664e         0         0         0         0  
     170  hru00170               170       0.63000      41.88200       2.65102     174.85714       170      s41865n2664e         0         0         0         0  
     171  hru00171               171       0.27000      41.88210       2.65138     169.66667       171      s41865n2664e         0         0         0         0  
     172  hru00172               172       9.81000      41.90476       2.61864     531.11927       172      s41865n2664e         0         0         0         0  
     173  hru00173               173       0.99000      41.90390       2.61884     507.09091       173      s41865n2664e         0         0         0         0  
     174  hru00174               174       0.81000      41.90311       2.62173     447.33333       174      s41865n2664e         0         0         0         0  
     175  hru00175               175       0.18000      41.90396       2.61383     521.00000       175      s41865n2664e         0         0         0         0  
     176  hru00176               176       0.09000      41.90369       2.61437     513.00000       176      s41865n2664e         0         0         0         0  
     177  hru00177               177       5.40000      41.89281       2.63625     310.15000       177      s41865n2664e         0         0         0         0  
     178  hru00178               178      14.49000      41.88953       2.64119     268.04348       178      s41865n2664e         0         0         0         0  
     179  hru00179               179      17.55000      41.88829       2.64383     256.05641       179      s41865n2664e         0         0         0         0  
     180  hru00180               180       5.49000      41.88853       2.64398     244.95082       180      s41865n2664e         0         0         0         0  
     181  hru00181               181       1.17000      41.88950       2.64311     238.07692       181      s41865n2664e         0         0         0         0  