initial.cha: written by SWAT+ editor v3.0.1 on 2024-10-31 16:57 for SWAT+ rev.61.0.1
name                       org_min              pest              path              hmet              salt  description       
initcha1                   no_init              null              null              null              null  null              
