ls_unit.def: written by SWAT+ editor v3.0.1 on 2024-10-31 16:58 for SWAT+ rev.61.0.1
286
      id              name          area  elem_tot  elements  
       1           rtu0010     132.57000         2      2848     -2885  
       2           rtu0020      31.05000         2      2778     -2789  
       3           rtu0030      53.28000         2      2578     -2610  
       4           rtu0040      63.99000         2     14442    -14478  
       5           rtu0050      30.96000         2     14522    -14542  
       6           rtu0060      98.55000         2     14404    -14441  
       7           rtu0070      23.31000         2     14303    -14324  
       8           rtu0080     119.88000         2     13991    -14041  
       9           rtu0090      17.55000         2     13488    -13524  
      10           rtu0100      64.17000         2     13525    -13557  
      11           rtu0110      63.81000         2     13282    -13321  
      12           rtu0120      20.07000         2     13261    -13281  
      13           rtu0130     216.27000         2     13322    -13420  
      14           rtu0140     246.06000         2     13606    -13683  
      15           rtu0150       0.45000         2      7301     -7302  
      16           rtu0160     134.73000         2      7252     -7300  
      17           rtu0170     157.95000         2      7147     -7204  
      18           rtu0180     256.23000         2      7033     -7146  
      19           rtu0190     232.47000         2      7205     -7251  
      20           rtu0200       1.35000         2     13421    -13426  
      21           rtu0210      17.82000         2      6684     -6695  
      22           rtu0220      76.14000         2     12741    -12786  
      23           rtu0230      52.02000         2      6696     -6717  
      24           rtu0240      21.15000         2     12787    -12793  
      25           rtu0250      89.01000         2      6623     -6672  
      26           rtu0260     190.98000         2     12523    -12588  
      27           rtu0270     426.15000         2      6490     -6577  
      28           rtu0280       1.35000         2      5349     -5357  
      29           rtu0290      31.77000         2      5358     -5401  
      30           rtu0300     124.83000         2     12382    -12436  
      31           rtu0310     372.15000         2      5184     -5271  
      32           rtu0320     163.08000         2     12193    -12277  
      33           rtu0330       0.09000         1     12330  
      34           rtu0340     162.36000         2      5541     -5591  
      35           rtu0350     173.52000         2      5592     -5631  
      36           rtu0360      80.28000         2      1698     -1735  
      37           rtu0370     106.65000         2      5632     -5695  
      38           rtu0380      83.61000         2      1633     -1697  
      39           rtu0390       3.33000         2      3810     -3823  
      40           rtu0400      43.38000         2      3700     -3751  
      41           rtu0410     582.03000         2      6773     -6889  
      42           rtu0420     288.90000         2      3609     -3699  
      43           rtu0430     244.62000         2      9162     -9230  
      44           rtu0440       0.81000         2     12324    -12329  
      45           rtu0450     377.91000         2     10269    -10371  
      46           rtu0460     151.65000         2      3430     -3488  
      47           rtu0470     107.01000         2     10164    -10220  
      48           rtu0480       0.18000         1     10694  
      49           rtu0490      46.44000         2     12589    -12626  
      50           rtu0500     619.92000         2      1182     -1332  
      51           rtu0510       0.45000         2      1041     -1043  
      52           rtu0520     138.96000         2     10592    -10634  
      53           rtu0530       4.86000         2     10635    -10640  
      54           rtu0540    1143.45000         2      8838     -8941  
      55           rtu0550       7.74000         2     10641    -10645  
      56           rtu0560       6.75000         2      9046     -9059  
      57           rtu0570       3.69000         2      9030     -9045  
      58           rtu0580     209.88000         2     12437    -12522  
      59           rtu0590     550.26000         2       670      -735  
      60           rtu0600      82.53000         2      8788     -8837  
      61           rtu0610       4.32000         2      6673     -6683  
      62           rtu0620     103.05000         2     12331    -12381  
      63           rtu0630      45.27000         2      6578     -6622  
      64           rtu0640     525.15000         2     10541    -10591  
      65           rtu0650     139.86000         2      5272     -5348  
      66           rtu0660     210.87000         2      8484     -8551  
      67           rtu0670     323.46000         2       472      -545  
      68           rtu0680      34.47000         2     10881    -10904  
      69           rtu0690     404.73000         2     11818    -11882  
      70           rtu0700    1042.74000         2      2956     -3089  
      71           rtu0710      50.40000         2     10905    -10941  
      72           rtu0720     215.10000         2      2919     -2955  
      73           rtu0730     301.05000         2      8583     -8641  
      74           rtu0740      24.84000         2      2332     -2356  
      75           rtu0750     519.12000         2      5017     -5113  
      76           rtu0760     312.48000         2     10221    -10268  
      77           rtu0770     206.82000         2       736      -794  
      78           rtu0780     112.68000         2      3824     -3919  
      79           rtu0790      52.92000         2      2703     -2744  
      80           rtu0800     445.23000         2      8343     -8413  
      81           rtu0810     155.52000         2     11610    -11669  
      82           rtu0820     184.14000         2      1569     -1632  
      83           rtu0830     402.30000         2     12031    -12128  
      84           rtu0840     129.42000         2      2255     -2291  
      85           rtu0850     158.40000         2     10842    -10880  
      86           rtu0860     269.55000         2     14543    -14601  
      87           rtu0870     112.68000         2       795      -875  
      88           rtu0880     247.14000         2       929      -964  
      89           rtu0890       9.90000         2     14516    -14521  
      90           rtu0900     190.98000         2      2220     -2254  
      91           rtu0910     477.45000         2      9949    -10006  
      92           rtu0920     521.28000         2      6159     -6256  
      93           rtu0930     324.09000         2      8144     -8206  
      94           rtu0940     509.04000         2      9809     -9867  
      95           rtu0950      64.17000         2      2108     -2137  
      96           rtu0960     124.29000         2     14479    -14515  
      97           rtu0970      81.36000         2      8095     -8143  
      98           rtu0980      33.39000         2     13237    -13260  
      99           rtu0990     153.18000         2     11746    -11776  
     100           rtu1000     177.39000         2      7303     -7359  
     101           rtu1010      13.23000         2      3978     -4013  
     102           rtu1020      66.15000         2     10079    -10108  
     103           rtu1030       1.53000         2     10068    -10078  
     104           rtu1040     361.26000         2      1005     -1040  
     105           rtu1050     101.52000         2      6109     -6158  
     106           rtu1060      54.27000         2      8642     -8677  
     107           rtu1070     333.45000         2       546      -581  
     108           rtu1080      61.47000         2      3489     -3532  
     109           rtu1090      49.14000         2      3920     -3977  
     110           rtu1100      34.38000         2      2745     -2777  
     111           rtu1110       1.17000         2      4073     -4078  
     112           rtu1120      66.69000         2      6020     -6076  
     113           rtu1130     221.40000         2      1954     -1990  
     114           rtu1140     168.03000         2      7435     -7480  
     115           rtu1150     141.75000         2      4938     -5016  
     116           rtu1160      23.22000         2       630      -669  
     117           rtu1170     268.56000         2      9662     -9700  
     118           rtu1180     631.35000         2     10758    -10841  
     119           rtu1190     369.45000         2     11089    -11148  
     120           rtu1200     140.31000         2     13166    -13236  
     121           rtu1210      94.95000         2      2138     -2159  
     122           rtu1220     788.40000         2      7904     -7967  
     123           rtu1230      13.59000         2     10007    -10022  
     124           rtu1240     561.06000         2     11512    -11589  
     125           rtu1250     322.56000         2     14243    -14302  
     126           rtu1260     487.71000         2      1366     -1422  
     127           rtu1270     669.60000         2      4014     -4072  
     128           rtu1280     261.54000         2      9490     -9561  
     129           rtu1290     410.49000         2      8288     -8342  
     130           rtu1300    1234.35000         2      7360     -7434  
     131           rtu1310     142.56000         2      2534     -2577  
     132           rtu1320      84.15000         2      9701     -9733  
     133           rtu1330      21.78000         2      4236     -4269  
     134           rtu1340     108.63000         2      8272     -8287  
     135           rtu1350     229.50000         2      2072     -2107  
     136           rtu1360      90.36000         2      5854     -5898  
     137           rtu1370     450.45000         2       582      -629  
     138           rtu1380     526.68000         2       264      -330  
     139           rtu1390     396.99000         2      4841     -4937  
     140           rtu1400     564.30000         2      8000     -8069  
     141           rtu1410      92.97000         2     11272    -11300  
     142           rtu1420      75.33000         2     13558    -13605  
     143           rtu1430     207.90000         2      2043     -2071  
     144           rtu1440     111.42000         2      8472     -8483  
     145           rtu1450     388.71000         2      7847     -7903  
     146           rtu1460     386.28000         2     14184    -14242  
     147           rtu1470     189.63000         2      1927     -1953  
     148           rtu1480     484.47000         2      4270     -4313  
     149           rtu1490     304.38000         2      4314     -4352  
     150           rtu1500     363.69000         2      4192     -4235  
     151           rtu1510     353.34000         2      4079     -4114  
     152           rtu1520     514.80000         2      4115     -4191  
     153           rtu1530     830.07000         2      5696     -5753  
     154           rtu1540     526.86000         2      7611     -7645  
     155           rtu1550     884.79000         2      5402     -5493  
     156           rtu1560    1231.20000         2      2611     -2702  
     157           rtu1570     217.44000         2      7646     -7691  
     158           rtu1580     208.44000         2      3752     -3809  
     159           rtu1590     316.62000         2      2790     -2847  
     160           rtu1600     781.47000         2     14661    -14751  
     161           rtu1610     562.32000         2      3533     -3608  
     162           rtu1620     667.53000         2      6718     -6772  
     163           rtu1630     586.62000         2      7551     -7610  
     164           rtu1640     427.77000         2     14602    -14660  
     165           rtu1650     455.31000         2      2439     -2492  
     166           rtu1660     555.57000         2      3270     -3344  
     167           rtu1670     207.09000         2      7521     -7550  
     168           rtu1680     232.02000         2      5114     -5183  
     169           rtu1690     191.88000         2      2493     -2533  
     170           rtu1700     300.06000         2      7481     -7520  
     171           rtu1710     351.18000         2      3345     -3429  
     172           rtu1720     173.25000         2      5494     -5540  
     173           rtu1730     769.77000         2     14325    -14403  
     174           rtu1740     522.63000         2      3181     -3269  
     175           rtu1750     396.72000         2      2383     -2438  
     176           rtu1760     442.53000         2     14129    -14183  
     177           rtu1770     179.19000         2     14042    -14093  
     178           rtu1780     290.97000         2     13736    -13782  
     179           rtu1790     190.89000         2     14094    -14128  
     180           rtu1800     453.60000         2      4639     -4738  
     181           rtu1810     434.07000         2      4739     -4840  
     182           rtu1820     452.43000         2      3090     -3180  
     183           rtu1830     203.04000         2     13902    -13930  
     184           rtu1840     213.30000         2     13684    -13735  
     185           rtu1850     228.51000         2     13879    -13901  
     186           rtu1860     234.45000         2     13427    -13487  
     187           rtu1870     445.59000         2      4546     -4638  
     188           rtu1880     457.38000         2     13931    -13990  
     189           rtu1890     195.03000         2      4518     -4545  
     190           rtu1900     511.65000         2      6415     -6489  
     191           rtu1910     496.17000         2      6890     -7032  
     192           rtu1920    1261.62000         2     11149    -11236  
     193           rtu1930     182.34000         2     12680    -12740  
     194           rtu1940     525.33000         2     11350    -11410  
     195           rtu1950     268.74000         2      2357     -2382  
     196           rtu1960     666.72000         2      2292     -2331  
     197           rtu1970     747.63000         2     13783    -13878  
     198           rtu1980     798.75000         2      6257     -6370  
     199           rtu1990     214.56000         2     11411    -11446  
     200           rtu2000     387.54000         2     13099    -13165  
     201           rtu2010     417.60000         2      4493     -4517  
     202           rtu2020     339.57000         2     12924    -13025  
     203           rtu2030     179.37000         2     12627    -12679  
     204           rtu2040     365.94000         2      2886     -2918  
     205           rtu2050     309.51000         2     13026    -13098  
     206           rtu2060     173.88000         2     11301    -11326  
     207           rtu2070     170.91000         2     11327    -11349  
     208           rtu2080     192.60000         2      6371     -6414  
     209           rtu2090     255.60000         2      2160     -2182  
     210           rtu2100     765.36000         2      5899     -6019  
     211           rtu2110     232.47000         2     11237    -11271  
     212           rtu2120     204.48000         2      2183     -2219  
     213           rtu2130     271.08000         2      9102     -9161  
     214           rtu2140     998.91000         2     12794    -12923  
     215           rtu2150    1450.62000         2     10372    -10484  
     216           rtu2160     204.84000         2      6077     -6108  
     217           rtu2170     221.40000         2      1897     -1926  
     218           rtu2180     224.82000         2     12278    -12323  
     219           rtu2190     318.33000         2      1991     -2042  
     220           rtu2200    2003.13000         2      4353     -4492  
     221           rtu2210     346.68000         2     10942    -11020  
     222           rtu2220     281.97000         2     10695    -10757  
     223           rtu2230     166.68000         2     11021    -11088  
     224           rtu2240     356.85000         2      5828     -5853  
     225           rtu2250     171.90000         2      5754     -5777  
     226           rtu2260     210.06000         2      5778     -5827  
     227           rtu2270     304.20000         2     11984    -12030  
     228           rtu2280     712.08000         2     12129    -12192  
     229           rtu2290     220.68000         2      9060     -9101  
     230           rtu2300     220.77000         2     10485    -10540  
     231           rtu2310     178.65000         2      1736     -1771  
     232           rtu2320     273.33000         2      1827     -1853  
     233           rtu2330     164.43000         2     10646    -10693  
     234           rtu2340     317.25000         2      1772     -1826  
     235           rtu2350     554.22000         2      8678     -8729  
     236           rtu2360     658.08000         2      1854     -1896  
     237           rtu2370     201.33000         2      8992     -9029  
     238           rtu2380     282.78000         2     10109    -10163  
     239           rtu2390     432.00000         2     11777    -11817  
     240           rtu2400     454.14000         2      8942     -8991  
     241           rtu2410     348.75000         2     11670    -11707  
     242           rtu2420     169.56000         2     11953    -11983  
     243           rtu2430     366.03000         2     10023    -10067  
     244           rtu2440     243.90000         2     11883    -11952  
     245           rtu2450     229.50000         2      8730     -8764  
     246           rtu2460     176.67000         2      8765     -8787  
     247           rtu2470     354.42000         2      8414     -8450  
     248           rtu2480     180.81000         2     11708    -11745  
     249           rtu2490     193.32000         2      8552     -8582  
     250           rtu2500     180.00000         2      8451     -8471  
     251           rtu2510    1045.80000         2     11479    -11511  
     252           rtu2520     279.36000         2      8207     -8247  
     253           rtu2530     211.14000         2     11590    -11609  
     254           rtu2540     319.23000         2      8248     -8271  
     255           rtu2550     397.98000         2      9734     -9808  
     256           rtu2560     259.74000         2      9868     -9948  
     257           rtu2570     184.32000         2      9562     -9602  
     258           rtu2580     284.40000         2      9603     -9661  
     259           rtu2590     577.53000         2     11447    -11478  
     260           rtu2600     181.62000         2      9401     -9489  
     261           rtu2610     188.28000         2      8070     -8094  
     262           rtu2620    1411.38000         2      1423     -1568  
     263           rtu2630     225.90000         2      9360     -9400  
     264           rtu2640     222.30000         2      1044     -1065  
     265           rtu2650     478.08000         2      1333     -1365  
     266           rtu2660     207.18000         2      7968     -7999  
     267           rtu2670     213.75000         2      9330     -9359  
     268           rtu2680     370.89000         2      7771     -7808  
     269           rtu2690     786.87000         2       965     -1004  
     270           rtu2700     303.21000         2      9289     -9329  
     271           rtu2710     333.81000         2      7809     -7846  
     272           rtu2720     487.98000         2       876      -928  
     273           rtu2730     780.66000         2      9231     -9288  
     274           rtu2740     244.17000         2      7731     -7770  
     275           rtu2750     276.57000         2      1135     -1181  
     276           rtu2760     587.61000         2      7692     -7730  
     277           rtu2770     326.61000         2       405      -436  
     278           rtu2780     430.92000         2      1066     -1134  
     279           rtu2790     271.62000         2       386      -404  
     280           rtu2800     274.32000         2       437      -471  
     281           rtu2810     401.67000         2       215      -263  
     282           rtu2820     306.18000         2       331      -355  
     283           rtu2830     324.72000         2       147      -214  
     284           rtu2840     316.89000         2       356      -385  
     285           rtu2850     317.88000         2         1      -106  
     286           rtu2860     285.21000         2       107      -146  
