ls_unit.ele: written by SWAT+ editor v3.0.1 on 2024-10-31 16:58 for SWAT+ rev.61.0.1
      id  name                   obj_typ  obj_typ_no      bsn_frac      sub_frac      reg_frac  
       1  hru00001                   hru           1     5.1018E-5       0.01387       0.00000  
       2  hru00002                   hru           2     3.0819E-4       0.08381       0.00000  
       3  hru00003                   hru           3     9.4748E-5       0.02576       0.00000  
       4  hru00004                   hru           4     5.9348E-5       0.01614       0.00000  
       5  hru00005                   hru           5     2.6030E-5       0.00708       0.00000  
       6  hru00006                   hru           6     4.8936E-5       0.01331       0.00000  
       7  hru00007                   hru           7     3.3318E-5       0.00906       0.00000  
       8  hru00008                   hru           8     4.5812E-5       0.01246       0.00000  
       9  hru00009                   hru           9     3.4359E-5       0.00934       0.00000  
      10  hru00010                   hru          10     3.6442E-5       0.00991       0.00000  
      11  hru00011                   hru          11     1.7700E-5       0.00481       0.00000  
      12  hru00012                   hru          12     2.0824E-6       0.00057       0.00000  
      13  hru00013                   hru          13     8.3295E-6       0.00227       0.00000  
      14  hru00014                   hru          14     3.1236E-6       0.00085       0.00000  
      15  hru00015                   hru          15     6.2471E-6       0.00170       0.00000  
      16  hru00016                   hru          16     1.0412E-6       0.00028       0.00000  
      17  hru00017                   hru          17     9.7872E-5       0.02661       0.00000  
      18  hru00018                   hru          18     2.4884E-4       0.06767       0.00000  
      19  hru00019                   hru          19     9.3603E-4       0.25453       0.00000  
      20  hru00020                   hru          20     3.0195E-5       0.00821       0.00000  
      21  hru00021                   hru          21     9.3707E-6       0.00255       0.00000  
      22  hru00022                   hru          22     1.3119E-4       0.03567       0.00000  
      23  hru00023                   hru          23     1.6243E-4       0.04417       0.00000  
      24  hru00024                   hru          24     5.2060E-5       0.01416       0.00000  
      25  hru00025                   hru          25     1.6138E-4       0.04388       0.00000  
      26  hru00026                   hru          26     3.8524E-5       0.01048       0.00000  
      27  hru00027                   hru          27     1.2494E-5       0.00340       0.00000  
      28  hru00028                   hru          28     1.5618E-5       0.00425       0.00000  
      29  hru00029                   hru          29     8.3295E-6       0.00227       0.00000  
      30  hru00030                   hru          30     5.2060E-6       0.00142       0.00000  
      31  hru00031                   hru          31     4.1648E-6       0.00113       0.00000  
      32  hru00032                   hru          32     5.2060E-6       0.00142       0.00000  
      33  hru00033                   hru          33     1.0412E-5       0.00283       0.00000  
      34  hru00034                   hru          34     2.2906E-5       0.00623       0.00000  
      35  hru00035                   hru          35     2.0824E-6       0.00057       0.00000  
      36  hru00036                   hru          36     3.6442E-5       0.00991       0.00000  
      37  hru00037                   hru          37     1.2598E-4       0.03426       0.00000  
      38  hru00038                   hru          38     1.4577E-5       0.00396       0.00000  
      39  hru00039                   hru          39     1.0412E-6       0.00028       0.00000  
      40  hru00040                   hru          40     1.0412E-6       0.00028       0.00000  
      41  hru00041                   hru          41     7.6007E-5       0.02067       0.00000  
      42  hru00042                   hru          42     1.6659E-5       0.00453       0.00000  
      43  hru00043                   hru          43     1.0308E-4       0.02803       0.00000  
      44  hru00044                   hru          44     4.1648E-5       0.01133       0.00000  
      45  hru00045                   hru          45     1.1453E-5       0.00311       0.00000  
      46  hru00046                   hru          46     2.8112E-5       0.00764       0.00000  
      47  hru00047                   hru          47     1.5618E-5       0.00425       0.00000  
      48  hru00048                   hru          48     1.5618E-5       0.00425       0.00000  
      49  hru00049                   hru          49     4.1648E-6       0.00113       0.00000  
      50  hru00050                   hru          50     1.1453E-5       0.00311       0.00000  
      51  hru00051                   hru          51     5.3101E-5       0.01444       0.00000  
      52  hru00052                   hru          52     2.9153E-5       0.00793       0.00000  
      53  hru00053                   hru          53     4.1648E-6       0.00113       0.00000  
      54  hru00054                   hru          54     7.2883E-6       0.00198       0.00000  
      55  hru00055                   hru          55     3.1236E-6       0.00085       0.00000  
      56  hru00056                   hru          56     1.0412E-6       0.00028       0.00000  
      57  hru00057                   hru          57     1.2494E-5       0.00340       0.00000  
      58  hru00058                   hru          58     2.4989E-5       0.00680       0.00000  
      59  hru00059                   hru          59     4.0606E-5       0.01104       0.00000  
      60  hru00060                   hru          60     3.1236E-6       0.00085       0.00000  
      61  hru00061                   hru          61     1.5618E-5       0.00425       0.00000  
      62  hru00062                   hru          62     3.1236E-6       0.00085       0.00000  
      63  hru00063                   hru          63     3.1236E-6       0.00085       0.00000  
      64  hru00064                   hru          64     4.1648E-6       0.00113       0.00000  
      65  hru00065                   hru          65     1.9783E-5       0.00538       0.00000  
      66  hru00066                   hru          66     2.2906E-5       0.00623       0.00000  
      67  hru00067                   hru          67     3.1236E-6       0.00085       0.00000  
      68  hru00068                   hru          68     1.0412E-6       0.00028       0.00000  
      69  hru00069                   hru          69     2.0824E-6       0.00057       0.00000  
      70  hru00070                   hru          70     1.0412E-6       0.00028       0.00000  
      71  hru00071                   hru          71     2.0824E-6       0.00057       0.00000  
      72  hru00072                   hru          72     1.5618E-5       0.00425       0.00000  
      73  hru00073                   hru          73     2.4989E-5       0.00680       0.00000  
      74  hru00074                   hru          74     1.1453E-5       0.00311       0.00000  
      75  hru00075                   hru          75     2.0824E-6       0.00057       0.00000  
      76  hru00076                   hru          76     1.0412E-6       0.00028       0.00000  
      77  hru00077                   hru          77     3.1236E-6       0.00085       0.00000  
      78  hru00078                   hru          78     3.1236E-6       0.00085       0.00000  
      79  hru00079                   hru          79     1.0412E-5       0.00283       0.00000  
      80  hru00080                   hru          80     9.3707E-6       0.00255       0.00000  
      81  hru00081                   hru          81     1.0412E-6       0.00028       0.00000  
      82  hru00082                   hru          82     1.0412E-6       0.00028       0.00000  
      83  hru00083                   hru          83     1.0412E-5       0.00283       0.00000  
      84  hru00084                   hru          84     1.4577E-5       0.00396       0.00000  
      85  hru00085                   hru          85     6.2471E-6       0.00170       0.00000  
      86  hru00086                   hru          86     4.1648E-6       0.00113       0.00000  
      87  hru00087                   hru          87     1.0412E-6       0.00028       0.00000  
      88  hru00088                   hru          88     2.0824E-6       0.00057       0.00000  
      89  hru00089                   hru          89     1.0412E-6       0.00028       0.00000  
      90  hru00090                   hru          90     2.0824E-6       0.00057       0.00000  
      91  hru00091                   hru          91     9.3707E-6       0.00255       0.00000  
      92  hru00092                   hru          92     1.0412E-6       0.00028       0.00000  
      93  hru00093                   hru          93     4.1648E-6       0.00113       0.00000  
      94  hru00094                   hru          94     1.0412E-6       0.00028       0.00000  
      95  hru00095                   hru          95     1.0412E-6       0.00028       0.00000  
      96  hru00096                   hru          96     4.1648E-6       0.00113       0.00000  
      97  hru00097                   hru          97     2.0824E-6       0.00057       0.00000  
      98  hru00098                   hru          98     1.0412E-6       0.00028       0.00000  
      99  hru00099                   hru          99     2.0824E-6       0.00057       0.00000  
     100  hru00100                   hru         100     1.0412E-6       0.00028       0.00000  
     101  hru00101                   hru         101     2.0824E-6       0.00057       0.00000  
     102  hru00102                   hru         102     1.1453E-5       0.00311       0.00000  
     103  hru00103                   hru         103     3.1236E-6       0.00085       0.00000  
     104  hru00104                   hru         104     1.2494E-5       0.00340       0.00000  
     105  hru00105                   hru         105     4.1648E-6       0.00113       0.00000  
     106  hru00106                   hru         106     1.0412E-6       0.00028       0.00000  
     107  hru00107                   hru         107     4.6854E-5       0.01420       0.00000  
     108  hru00108                   hru         108     1.3015E-4       0.03944       0.00000  
     109  hru00109                   hru         109     3.5401E-5       0.01073       0.00000  
     110  hru00110                   hru         110     2.0824E-5       0.00631       0.00000  
     111  hru00111                   hru         111     7.2883E-6       0.00221       0.00000  
     112  hru00112                   hru         112     2.1657E-4       0.06564       0.00000  
     113  hru00113                   hru         113     5.9869E-4       0.18145       0.00000  
     114  hru00114                   hru         114     9.7872E-5       0.02966       0.00000  
     115  hru00115                   hru         115     8.3295E-5       0.02524       0.00000  
     116  hru00116                   hru         116     3.5401E-5       0.01073       0.00000  
     117  hru00117                   hru         117     2.0824E-6       0.00063       0.00000  
     118  hru00118                   hru         118     4.1648E-6       0.00126       0.00000  
     119  hru00119                   hru         119     3.1236E-6       0.00095       0.00000  
     120  hru00120                   hru         120     2.1865E-5       0.00663       0.00000  
     121  hru00121                   hru         121     9.8913E-5       0.02998       0.00000  
     122  hru00122                   hru         122     6.2471E-6       0.00189       0.00000  
     123  hru00123                   hru         123     3.1236E-6       0.00095       0.00000  
     124  hru00124                   hru         124     3.2277E-5       0.00978       0.00000  
     125  hru00125                   hru         125     5.2060E-6       0.00158       0.00000  
     126  hru00126                   hru         126     4.0606E-5       0.01231       0.00000  
     127  hru00127                   hru         127     1.8741E-5       0.00568       0.00000  
     128  hru00128                   hru         128     1.0933E-4       0.03313       0.00000  
     129  hru00129                   hru         129     9.2145E-4       0.27927       0.00000  
     130  hru00130                   hru         130     2.8112E-5       0.00852       0.00000  
     131  hru00131                   hru         131     9.3707E-6       0.00284       0.00000  
     132  hru00132                   hru         132     3.1236E-6       0.00095       0.00000  
     133  hru00133                   hru         133     2.0303E-4       0.06153       0.00000  
     134  hru00134                   hru         134     3.6129E-4       0.10950       0.00000  
     135  hru00135                   hru         135     7.0801E-5       0.02146       0.00000  
     136  hru00136                   hru         136     9.3707E-6       0.00284       0.00000  
     137  hru00137                   hru         137     1.6659E-5       0.00505       0.00000  
     138  hru00138                   hru         138     7.2883E-6       0.00221       0.00000  
     139  hru00139                   hru         139     3.1236E-6       0.00095       0.00000  
     140  hru00140                   hru         140     8.3295E-6       0.00252       0.00000  
     141  hru00141                   hru         141     7.2883E-6       0.00221       0.00000  
     142  hru00142                   hru         142     2.0824E-6       0.00063       0.00000  
     143  hru00143                   hru         143     5.2060E-6       0.00158       0.00000  
     144  hru00144                   hru         144     2.2906E-5       0.00694       0.00000  
     145  hru00145                   hru         145     1.0412E-6       0.00032       0.00000  
     146  hru00146                   hru         146     1.0412E-6       0.00032       0.00000  
     147  hru00147                   hru         147     5.4246E-4       0.14440       0.00000  
     148  hru00148                   hru         148     1.8013E-4       0.04795       0.00000  
     149  hru00149                   hru         149     8.2254E-5       0.02190       0.00000  
     150  hru00150                   hru         150     4.8936E-5       0.01303       0.00000  
     151  hru00151                   hru         151     7.2883E-6       0.00194       0.00000  
     152  hru00152                   hru         152     7.0280E-4       0.18708       0.00000  
     153  hru00153                   hru         153     3.8212E-4       0.10172       0.00000  
     154  hru00154                   hru         154     7.0801E-5       0.01885       0.00000  
     155  hru00155                   hru         155     1.9366E-4       0.05155       0.00000  
     156  hru00156                   hru         156     3.8732E-4       0.10310       0.00000  
     157  hru00157                   hru         157     3.1236E-6       0.00083       0.00000  
     158  hru00158                   hru         158     3.1236E-6       0.00083       0.00000  
     159  hru00159                   hru         159     1.0412E-6       0.00028       0.00000  
     160  hru00160                   hru         160     1.9783E-5       0.00527       0.00000  
     161  hru00161                   hru         161     6.2471E-6       0.00166       0.00000  
     162  hru00162                   hru         162     9.3707E-6       0.00249       0.00000  
     163  hru00163                   hru         163     1.5618E-5       0.00416       0.00000  
     164  hru00164                   hru         164     1.0412E-5       0.00277       0.00000  
     165  hru00165                   hru         165     4.2689E-5       0.01136       0.00000  
     166  hru00166                   hru         166     3.1236E-5       0.00831       0.00000  
     167  hru00167                   hru         167     4.8936E-5       0.01303       0.00000  
     168  hru00168                   hru         168     4.9977E-5       0.01330       0.00000  
     169  hru00169                   hru         169     4.6854E-5       0.01247       0.00000  
     170  hru00170                   hru         170     7.2883E-6       0.00194       0.00000  
     171  hru00171                   hru         171     3.1236E-6       0.00083       0.00000  
     172  hru00172                   hru         172     1.1349E-4       0.03021       0.00000  
     173  hru00173                   hru         173     1.1453E-5       0.00305       0.00000  
     174  hru00174                   hru         174     9.3707E-6       0.00249       0.00000  
     175  hru00175                   hru         175     2.0824E-6       0.00055       0.00000  
     176  hru00176                   hru         176     1.0412E-6       0.00028       0.00000  
     177  hru00177                   hru         177     6.2471E-5       0.01663       0.00000  
     178  hru00178                   hru         178     1.6763E-4       0.04462       0.00000  
     179  hru00179                   hru         179     2.0303E-4       0.05405       0.00000  
     180  hru00180                   hru         180     6.3513E-5       0.01691       0.00000  
     181  hru00181                   hru         181     1.3535E-5       0.00360       0.00000  
     182  hru00182                   hru         182     2.0824E-6       0.00055       0.00000  
     183  hru00183                   hru         183     2.0824E-6       0.00055       0.00000  
     184  hru00184                   hru         184     1.0412E-6       0.00028       0.00000  
     185  hru00185                   hru         185     3.1236E-6       0.00083       0.00000  
     186  hru00186                   hru         186     1.0412E-6       0.00028       0.00000  
     187  hru00187                   hru         187     2.0824E-6       0.00055       0.00000  
     188  hru00188                   hru         188     5.4142E-5       0.01441       0.00000  
     189  hru00189                   hru         189     3.1236E-5       0.00831       0.00000  
     190  hru00190                   hru         190     2.7071E-5       0.00721       0.00000  
     191  hru00191                   hru         191     3.1236E-6       0.00083       0.00000  
     192  hru00192                   hru         192     3.1236E-6       0.00083       0.00000  
     193  hru00193                   hru         193     3.1236E-6       0.00083       0.00000  
     194  hru00194                   hru         194     1.0412E-6       0.00028       0.00000  
     195  hru00195                   hru         195     1.0412E-6       0.00028       0.00000  
     196  hru00196                   hru         196     1.0412E-6       0.00028       0.00000  
     197  hru00197                   hru         197     5.2060E-6       0.00139       0.00000  
     198  hru00198                   hru         198     1.2494E-5       0.00333       0.00000  
     199  hru00199                   hru         199     2.0824E-6       0.00055       0.00000  
     200  hru00200                   hru         200     5.2060E-6       0.00139       0.00000  
     201  hru00201                   hru         201     1.0412E-6       0.00028       0.00000  
     202  hru00202                   hru         202     1.0412E-6       0.00028       0.00000  
     203  hru00203                   hru         203     1.0412E-5       0.00277       0.00000  
     204  hru00204                   hru         204     5.2060E-6       0.00139       0.00000  
     205  hru00205                   hru         205     5.2060E-6       0.00139       0.00000  
     206  hru00206                   hru         206     2.0824E-6       0.00055       0.00000  
     207  hru00207                   hru         207     1.0412E-6       0.00028       0.00000  
     208  hru00208                   hru         208     1.3535E-5       0.00360       0.00000  
     209  hru00209                   hru         209     1.0412E-6       0.00028       0.00000  
     210  hru00210                   hru         210     1.0412E-6       0.00028       0.00000  
     211  hru00211                   hru         211     2.0824E-6       0.00055       0.00000  
     212  hru00212                   hru         212     4.1648E-6       0.00111       0.00000  
     213  hru00213                   hru         213     1.0412E-6       0.00028       0.00000  
     214  hru00214                   hru         214     2.0824E-6       0.00055       0.00000  
     215  hru00215                   hru         215     3.8420E-4       0.08268       0.00000  
     216  hru00216                   hru         216     5.4663E-4       0.11763       0.00000  
     217  hru00217                   hru         217     1.9366E-4       0.04168       0.00000  
     218  hru00218                   hru         218     1.6003E-3       0.34439       0.00000  
     219  hru00219                   hru         219     5.7266E-5       0.01232       0.00000  
     220  hru00220                   hru         220     1.0412E-5       0.00224       0.00000  
     221  hru00221                   hru         221     1.6659E-5       0.00359       0.00000  
     222  hru00222                   hru         222     1.1453E-5       0.00246       0.00000  
     223  hru00223                   hru         223     5.2060E-6       0.00112       0.00000  
     224  hru00224                   hru         224     1.6659E-5       0.00359       0.00000  
     225  hru00225                   hru         225     2.6967E-4       0.05803       0.00000  
     226  hru00226                   hru         226     1.1141E-4       0.02397       0.00000  
     227  hru00227                   hru         227     3.6442E-5       0.00784       0.00000  
     228  hru00228                   hru         228     9.3603E-4       0.20143       0.00000  
     229  hru00229                   hru         229     1.0412E-6       0.00022       0.00000  
     230  hru00230                   hru         230     3.1236E-6       0.00067       0.00000  
     231  hru00231                   hru         231     5.2060E-6       0.00112       0.00000  
     232  hru00232                   hru         232     1.1453E-5       0.00246       0.00000  
     233  hru00233                   hru         233     1.5618E-5       0.00336       0.00000  
     234  hru00234                   hru         234     8.3295E-6       0.00179       0.00000  
     235  hru00235                   hru         235     8.3295E-6       0.00179       0.00000  
     236  hru00236                   hru         236     1.0412E-6       0.00022       0.00000  
     237  hru00237                   hru         237     8.3295E-6       0.00179       0.00000  
     238  hru00238                   hru         238     6.2471E-6       0.00134       0.00000  
     239  hru00239                   hru         239     2.0824E-6       0.00045       0.00000  
     240  hru00240                   hru         240     4.7895E-5       0.01031       0.00000  
     241  hru00241                   hru         241     3.8524E-5       0.00829       0.00000  
     242  hru00242                   hru         242     7.4966E-5       0.01613       0.00000  
     243  hru00243                   hru         243     4.1648E-6       0.00090       0.00000  
     244  hru00244                   hru         244     1.2598E-4       0.02711       0.00000  
     245  hru00245                   hru         245     2.0824E-6       0.00045       0.00000  
     246  hru00246                   hru         246     6.2471E-6       0.00134       0.00000  
     247  hru00247                   hru         247     8.3295E-6       0.00179       0.00000  
     248  hru00248                   hru         248     9.3707E-6       0.00202       0.00000  
     249  hru00249                   hru         249     1.4577E-5       0.00314       0.00000  
     250  hru00250                   hru         250     3.1236E-6       0.00067       0.00000  
     251  hru00251                   hru         251     9.3707E-6       0.00202       0.00000  
     252  hru00252                   hru         252     6.2471E-6       0.00134       0.00000  
     253  hru00253                   hru         253     1.0412E-6       0.00022       0.00000  
     254  hru00254                   hru         254     1.0412E-6       0.00022       0.00000  
     255  hru00255                   hru         255     1.0412E-6       0.00022       0.00000  
     256  hru00256                   hru         256     2.0824E-6       0.00045       0.00000  
     257  hru00257                   hru         257     4.1648E-6       0.00090       0.00000  
     258  hru00258                   hru         258     4.1648E-6       0.00090       0.00000  
     259  hru00259                   hru         259     3.1236E-6       0.00067       0.00000  
     260  hru00260                   hru         260     6.2471E-6       0.00134       0.00000  
     261  hru00261                   hru         261     4.1648E-6       0.00090       0.00000  
     262  hru00262                   hru         262     1.0412E-6       0.00022       0.00000  
     263  hru00263                   hru         263     1.0412E-6       0.00022       0.00000  
     264  hru00264                   hru         264     1.1765E-4       0.01931       0.00000  
     265  hru00265                   hru         265     3.1236E-6       0.00051       0.00000  
     266  hru00266                   hru         266     2.0824E-6       0.00034       0.00000  
     267  hru00267                   hru         267     1.4337E-3       0.23530       0.00000  
     268  hru00268                   hru         268     1.1307E-3       0.18558       0.00000  
     269  hru00269                   hru         269     5.9244E-4       0.09723       0.00000  
     270  hru00270                   hru         270     2.2594E-4       0.03708       0.00000  
     271  hru00271                   hru         271     3.0195E-5       0.00496       0.00000  
     272  hru00272                   hru         272     4.4771E-5       0.00735       0.00000  
     273  hru00273                   hru         273     7.7048E-5       0.01265       0.00000  
     274  hru00274                   hru         274     1.1453E-5       0.00188       0.00000  
     275  hru00275                   hru         275     2.8112E-5       0.00461       0.00000  
     276  hru00276                   hru         276     4.3730E-5       0.00718       0.00000  
     277  hru00277                   hru         277     9.3707E-6       0.00154       0.00000  
     278  hru00278                   hru         278     1.9470E-4       0.03195       0.00000  
     279  hru00279                   hru         279     3.0611E-4       0.05024       0.00000  
     280  hru00280                   hru         280     2.8008E-4       0.04597       0.00000  
     281  hru00281                   hru         281     1.5514E-4       0.02546       0.00000  
     282  hru00282                   hru         282     2.4989E-5       0.00410       0.00000  
     283  hru00283                   hru         283     2.1865E-5       0.00359       0.00000  
     284  hru00284                   hru         284     5.9348E-5       0.00974       0.00000  
     285  hru00285                   hru         285     5.2060E-6       0.00085       0.00000  
     286  hru00286                   hru         286     8.0172E-5       0.01316       0.00000  
     287  hru00287                   hru         287     1.7700E-5       0.00290       0.00000  
     288  hru00288                   hru         288     1.0724E-4       0.01760       0.00000  
     289  hru00289                   hru         289     1.9679E-4       0.03230       0.00000  
     290  hru00290                   hru         290     8.3295E-5       0.01367       0.00000  
     291  hru00291                   hru         291     1.1245E-4       0.01846       0.00000  
     292  hru00292                   hru         292     3.0195E-5       0.00496       0.00000  
     293  hru00293                   hru         293     8.6419E-5       0.01418       0.00000  
     294  hru00294                   hru         294     5.5183E-5       0.00906       0.00000  
     295  hru00295                   hru         295     1.2286E-4       0.02016       0.00000  
     296  hru00296                   hru         296     2.2906E-5       0.00376       0.00000  
     297  hru00297                   hru         297     8.3295E-6       0.00137       0.00000  
     298  hru00298                   hru         298     8.4337E-5       0.01384       0.00000  
     299  hru00299                   hru         299     3.8524E-5       0.00632       0.00000  
     300  hru00300                   hru         300     8.3295E-5       0.01367       0.00000  
     301  hru00301                   hru         301     7.2883E-6       0.00120       0.00000  
     302  hru00302                   hru         302     2.0824E-6       0.00034       0.00000  
     303  hru00303                   hru         303     1.2494E-5       0.00205       0.00000  
     304  hru00304                   hru         304     3.2277E-5       0.00530       0.00000  