object.cnt: written by SWAT+ editor v3.0.1 on 2024-10-31 16:57 for SWAT+ rev.61.0.1
name                   ls_area      tot_area       obj       hru      lhru       rtu      gwfl       aqu       cha       res       rec      exco       dlr       can       pmp       out      lcha     aqu2d       hrd       wro  
swatplus_tordera_1   86439.42000   86439.42000     15337     14751         0       286         0        14         0         0         0         0         0         0         0         0       286         0         0         0  
