pcp.cli: Precipitation file names - file written by SWAT+ editor 2024-07-19 18:08:06.327161
filename
Breda_p.pcp
Dosrius_p.pcp
Fogars_p.pcp
Malgrat_p.pcp
PalauTord_p.pcp
PSesolles_p.pcp
StColo_p.pcp
StHilari_p.pcp
Tagam_p.pcp
Viladrau_p.pcp
Vilobi_p.pcp
