plant.ini: written by SWAT+ editor v3.0.1 on 2024-10-31 16:58 for SWAT+ rev.61.0.1
pcom_name          plt_cnt  rot_yr_ini          plt_name     lc_status      lai_init       bm_init      phu_init      plnt_pop      yrs_init      rsd_init  
cadu_comm                1         1  
                                        cadu             n       0.00000       0.00000       0.00000       0.00000       0.00000   10000.00000  
escl_comm                1         1  
                                        escl             n       0.00000       0.00000       0.00000       0.00000       0.00000   10000.00000  
coni_comm                1         1  
                                        coni             n       0.00000       0.00000       0.00000       0.00000       0.00000   10000.00000  
mato_comm                1         1  
                                        mato             n       0.00000       0.00000       0.00000       0.00000       0.00000   10000.00000  
papr_comm                1         1  
                                        papr             n       0.00000       0.00000       0.00000       0.00000       0.00000   10000.00000  
agua_comm                1         1  
                                        agua             n       0.00000       0.00000       0.00000       0.00000       0.00000   10000.00000  
cult_comm                1         1  
                                        cult             n       0.00000       0.00000       0.00000       0.00000       0.00000   10000.00000  
