rout_unit.ele: written by SWAT+ editor v3.0.1 on 2024-10-31 16:57 for SWAT+ rev.61.0.1
      id  name                   obj_typ    obj_id          frac               dlr  
       1  hru00001                   hru         1     1.3873E-2                 0  
       2  hru00002                   hru         2     8.3805E-2                 0  
       3  hru00003                   hru         3     2.5764E-2                 0  
       4  hru00004                   hru         4     1.6138E-2                 0  
       5  hru00005                   hru         5     7.0781E-3                 0  
       6  hru00006                   hru         6     1.3307E-2                 0  
       7  hru00007                   hru         7     9.0600E-3                 0  
       8  hru00008                   hru         8     1.2458E-2                 0  
       9  hru00009                   hru         9     9.3431E-3                 0  
      10  hru00010                   hru        10     9.9094E-3                 0  
      11  hru00011                   hru        11     4.8131E-3                 0  
      12  hru00012                   hru        12     5.6625E-4                 0  
      13  hru00013                   hru        13     2.2650E-3                 0  
      14  hru00014                   hru        14     8.4938E-4                 0  
      15  hru00015                   hru        15     1.6988E-3                 0  
      16  hru00016                   hru        16     2.8313E-4                 0  
      17  hru00017                   hru        17     2.6614E-2                 0  
      18  hru00018                   hru        18     6.7667E-2                 0  
      19  hru00019                   hru        19     2.5453E-1                 0  
      20  hru00020                   hru        20     8.2106E-3                 0  
      21  hru00021                   hru        21     2.5481E-3                 0  
      22  hru00022                   hru        22     3.5674E-2                 0  
      23  hru00023                   hru        23     4.4168E-2                 0  
      24  hru00024                   hru        24     1.4156E-2                 0  
      25  hru00025                   hru        25     4.3884E-2                 0  
      26  hru00026                   hru        26     1.0476E-2                 0  
      27  hru00027                   hru        27     3.3975E-3                 0  
      28  hru00028                   hru        28     4.2469E-3                 0  
      29  hru00029                   hru        29     2.2650E-3                 0  
      30  hru00030                   hru        30     1.4156E-3                 0  
      31  hru00031                   hru        31     1.1325E-3                 0  
      32  hru00032                   hru        32     1.4156E-3                 0  
      33  hru00033                   hru        33     2.8313E-3                 0  
      34  hru00034                   hru        34     6.2288E-3                 0  
      35  hru00035                   hru        35     5.6625E-4                 0  
      36  hru00036                   hru        36     9.9094E-3                 0  
      37  hru00037                   hru        37     3.4258E-2                 0  
      38  hru00038                   hru        38     3.9638E-3                 0  
      39  hru00039                   hru        39     2.8313E-4                 0  
      40  hru00040                   hru        40     2.8313E-4                 0  
      41  hru00041                   hru        41     2.0668E-2                 0  
      42  hru00042                   hru        42     4.5300E-3                 0  
      43  hru00043                   hru        43     2.8029E-2                 0  
      44  hru00044                   hru        44     1.1325E-2                 0  
      45  hru00045                   hru        45     3.1144E-3                 0  
      46  hru00046                   hru        46     7.6444E-3                 0  
      47  hru00047                   hru        47     4.2469E-3                 0  
      48  hru00048                   hru        48     4.2469E-3                 0  
      49  hru00049                   hru        49     1.1325E-3                 0  
      50  hru00050                   hru        50     3.1144E-3                 0  
      51  hru00051                   hru        51     1.4439E-2                 0  
      52  hru00052                   hru        52     7.9275E-3                 0  
      53  hru00053                   hru        53     1.1325E-3                 0  
      54  hru00054                   hru        54     1.9819E-3                 0  
      55  hru00055                   hru        55     8.4938E-4                 0  
      56  hru00056                   hru        56     2.8313E-4                 0  
      57  hru00057                   hru        57     3.3975E-3                 0  
      58  hru00058                   hru        58     6.7950E-3                 0  
      59  hru00059                   hru        59     1.1042E-2                 0  
      60  hru00060                   hru        60     8.4938E-4                 0  
      61  hru00061                   hru        61     4.2469E-3                 0  
      62  hru00062                   hru        62     8.4938E-4                 0  
      63  hru00063                   hru        63     8.4938E-4                 0  
      64  hru00064                   hru        64     1.1325E-3                 0  
      65  hru00065                   hru        65     5.3794E-3                 0  
      66  hru00066                   hru        66     6.2288E-3                 0  
      67  hru00067                   hru        67     8.4938E-4                 0  
      68  hru00068                   hru        68     2.8313E-4                 0  
      69  hru00069                   hru        69     5.6625E-4                 0  
      70  hru00070                   hru        70     2.8313E-4                 0  
      71  hru00071                   hru        71     5.6625E-4                 0  
      72  hru00072                   hru        72     4.2469E-3                 0  
      73  hru00073                   hru        73     6.7950E-3                 0  
      74  hru00074                   hru        74     3.1144E-3                 0  
      75  hru00075                   hru        75     5.6625E-4                 0  
      76  hru00076                   hru        76     2.8313E-4                 0  
      77  hru00077                   hru        77     8.4938E-4                 0  
      78  hru00078                   hru        78     8.4938E-4                 0  
      79  hru00079                   hru        79     2.8313E-3                 0  
      80  hru00080                   hru        80     2.5481E-3                 0  
      81  hru00081                   hru        81     2.8313E-4                 0  
      82  hru00082                   hru        82     2.8313E-4                 0  
      83  hru00083                   hru        83     2.8313E-3                 0  
      84  hru00084                   hru        84     3.9638E-3                 0  
      85  hru00085                   hru        85     1.6988E-3                 0  
      86  hru00086                   hru        86     1.1325E-3                 0  
      87  hru00087                   hru        87     2.8313E-4                 0  
      88  hru00088                   hru        88     5.6625E-4                 0  
      89  hru00089                   hru        89     2.8313E-4                 0  
      90  hru00090                   hru        90     5.6625E-4                 0  
      91  hru00091                   hru        91     2.5481E-3                 0  
      92  hru00092                   hru        92     2.8313E-4                 0  
      93  hru00093                   hru        93     1.1325E-3                 0  
      94  hru00094                   hru        94     2.8313E-4                 0  
      95  hru00095                   hru        95     2.8313E-4                 0  
      96  hru00096                   hru        96     1.1325E-3                 0  
      97  hru00097                   hru        97     5.6625E-4                 0  
      98  hru00098                   hru        98     2.8313E-4                 0  
      99  hru00099                   hru        99     5.6625E-4                 0  
     100  hru00100                   hru       100     2.8313E-4                 0  
     101  hru00101                   hru       101     5.6625E-4                 0  
     102  hru00102                   hru       102     3.1144E-3                 0  
     103  hru00103                   hru       103     8.4938E-4                 0  
     104  hru00104                   hru       104     3.3975E-3                 0  
     105  hru00105                   hru       105     1.1325E-3                 0  
     106  hru00106                   hru       106     2.8313E-4                 0  
     107  hru00107                   hru       107     1.4200E-2                 0  
     108  hru00108                   hru       108     3.9445E-2                 0  
     109  hru00109                   hru       109     1.0729E-2                 0  
     110  hru00110                   hru       110     6.3111E-3                 0  
     111  hru00111                   hru       111     2.2089E-3                 0  
     112  hru00112                   hru       112     6.5636E-2                 0  
     113  hru00113                   hru       113     1.8145E-1                 0  
     114  hru00114                   hru       114     2.9662E-2                 0  
     115  hru00115                   hru       115     2.5245E-2                 0  
     116  hru00116                   hru       116     1.0729E-2                 0  
     117  hru00117                   hru       117     6.3111E-4                 0  
     118  hru00118                   hru       118     1.2622E-3                 0  
     119  hru00119                   hru       119     9.4667E-4                 0  
     120  hru00120                   hru       120     6.6267E-3                 0  
     121  hru00121                   hru       121     2.9978E-2                 0  
     122  hru00122                   hru       122     1.8933E-3                 0  
     123  hru00123                   hru       123     9.4667E-4                 0  
     124  hru00124                   hru       124     9.7823E-3                 0  
     125  hru00125                   hru       125     1.5778E-3                 0  
     126  hru00126                   hru       126     1.2307E-2                 0  
     127  hru00127                   hru       127     5.6800E-3                 0  
     128  hru00128                   hru       128     3.3133E-2                 0  
     129  hru00129                   hru       129     2.7927E-1                 0  
     130  hru00130                   hru       130     8.5200E-3                 0  
     131  hru00131                   hru       131     2.8400E-3                 0  
     132  hru00132                   hru       132     9.4667E-4                 0  
     133  hru00133                   hru       133     6.1534E-2                 0  
     134  hru00134                   hru       134     1.0950E-1                 0  
     135  hru00135                   hru       135     2.1458E-2                 0  
     136  hru00136                   hru       136     2.8400E-3                 0  
     137  hru00137                   hru       137     5.0489E-3                 0  
     138  hru00138                   hru       138     2.2089E-3                 0  
     139  hru00139                   hru       139     9.4667E-4                 0  
     140  hru00140                   hru       140     2.5245E-3                 0  
     141  hru00141                   hru       141     2.2089E-3                 0  
     142  hru00142                   hru       142     6.3111E-4                 0  
     143  hru00143                   hru       143     1.5778E-3                 0  
     144  hru00144                   hru       144     6.9423E-3                 0  
     145  hru00145                   hru       145     3.1556E-4                 0  
     146  hru00146                   hru       146     3.1556E-4                 0  
     147  hru00147                   hru       147     1.4440E-1                 0  
     148  hru00148                   hru       148     4.7949E-2                 0  
     149  hru00149                   hru       149     2.1896E-2                 0  
     150  hru00150                   hru       150     1.3027E-2                 0  
     151  hru00151                   hru       151     1.9401E-3                 0  
     152  hru00152                   hru       152     1.8708E-1                 0  
     153  hru00153                   hru       153     1.0172E-1                 0  
     154  hru00154                   hru       154     1.8847E-2                 0  
     155  hru00155                   hru       155     5.1552E-2                 0  
     156  hru00156                   hru       156     1.0310E-1                 0  
     157  hru00157                   hru       157     8.3149E-4                 0  
     158  hru00158                   hru       158     8.3149E-4                 0  
     159  hru00159                   hru       159     2.7716E-4                 0  
     160  hru00160                   hru       160     5.2661E-3                 0  
     161  hru00161                   hru       161     1.6630E-3                 0  
     162  hru00162                   hru       162     2.4945E-3                 0  
     163  hru00163                   hru       163     4.1574E-3                 0  
     164  hru00164                   hru       164     2.7716E-3                 0  
     165  hru00165                   hru       165     1.1364E-2                 0  
     166  hru00166                   hru       166     8.3149E-3                 0  
     167  hru00167                   hru       167     1.3027E-2                 0  
     168  hru00168                   hru       168     1.3304E-2                 0  
     169  hru00169                   hru       169     1.2472E-2                 0  
     170  hru00170                   hru       170     1.9401E-3                 0  
     171  hru00171                   hru       171     8.3149E-4                 0  
     172  hru00172                   hru       172     3.0211E-2                 0  
     173  hru00173                   hru       173     3.0488E-3                 0  
     174  hru00174                   hru       174     2.4945E-3                 0  
     175  hru00175                   hru       175     5.5432E-4                 0  
     176  hru00176                   hru       176     2.7716E-4                 0  
     177  hru00177                   hru       177     1.6630E-2                 0  
     178  hru00178                   hru       178     4.4623E-2                 0  
     179  hru00179                   hru       179     5.4047E-2                 0  
     180  hru00180                   hru       180     1.6907E-2                 0  
     181  hru00181                   hru       181     3.6031E-3                 0  
     182  hru00182                   hru       182     5.5432E-4                 0  
     183  hru00183                   hru       183     5.5432E-4                 0  
     184  hru00184                   hru       184     2.7716E-4                 0  
     185  hru00185                   hru       185     8.3149E-4                 0  
     186  hru00186                   hru       186     2.7716E-4                 0  
     187  hru00187                   hru       187     5.5432E-4                 0  
     188  hru00188                   hru       188     1.4412E-2                 0  
     189  hru00189                   hru       189     8.3149E-3                 0  
     190  hru00190                   hru       190     7.2062E-3                 0  
     191  hru00191                   hru       191     8.3149E-4                 0  
     192  hru00192                   hru       192     8.3149E-4                 0  
     193  hru00193                   hru       193     8.3149E-4                 0  
     194  hru00194                   hru       194     2.7716E-4                 0  
     195  hru00195                   hru       195     2.7716E-4                 0  
     196  hru00196                   hru       196     2.7716E-4                 0  
     197  hru00197                   hru       197     1.3858E-3                 0  
     198  hru00198                   hru       198     3.3259E-3                 0  
     199  hru00199                   hru       199     5.5432E-4                 0  
     200  hru00200                   hru       200     1.3858E-3                 0  
     201  hru00201                   hru       201     2.7716E-4                 0  
     202  hru00202                   hru       202     2.7716E-4                 0  
     203  hru00203                   hru       203     2.7716E-3                 0  
     204  hru00204                   hru       204     1.3858E-3                 0  
     205  hru00205                   hru       205     1.3858E-3                 0  
     206  hru00206                   hru       206     5.5432E-4                 0  
     207  hru00207                   hru       207     2.7716E-4                 0  
     208  hru00208                   hru       208     3.6031E-3                 0  
     209  hru00209                   hru       209     2.7716E-4                 0  
     210  hru00210                   hru       210     2.7716E-4                 0  
     211  hru00211                   hru       211     5.5432E-4                 0  
     212  hru00212                   hru       212     1.1086E-3                 0  
     213  hru00213                   hru       213     2.7716E-4                 0  
     214  hru00214                   hru       214     5.5432E-4                 0  
     215  hru00215                   hru       215     8.2680E-2                 0  
     216  hru00216                   hru       216     1.1763E-1                 0  
     217  hru00217                   hru       217     4.1676E-2                 0  
     218  hru00218                   hru       218     3.4439E-1                 0  
     219  hru00219                   hru       219     1.2324E-2                 0  
     220  hru00220                   hru       220     2.2406E-3                 0  
     221  hru00221                   hru       221     3.5850E-3                 0  
     222  hru00222                   hru       222     2.4647E-3                 0  
     223  hru00223                   hru       223     1.1203E-3                 0  
     224  hru00224                   hru       224     3.5850E-3                 0  
     225  hru00225                   hru       225     5.8033E-2                 0  
     226  hru00226                   hru       226     2.3975E-2                 0  
     227  hru00227                   hru       227     7.8423E-3                 0  
     228  hru00228                   hru       228     2.0143E-1                 0  
     229  hru00229                   hru       229     2.2406E-4                 0  
     230  hru00230                   hru       230     6.7219E-4                 0  
     231  hru00231                   hru       231     1.1203E-3                 0  
     232  hru00232                   hru       232     2.4647E-3                 0  
     233  hru00233                   hru       233     3.3610E-3                 0  
     234  hru00234                   hru       234     1.7925E-3                 0  
     235  hru00235                   hru       235     1.7925E-3                 0  
     236  hru00236                   hru       236     2.2406E-4                 0  
     237  hru00237                   hru       237     1.7925E-3                 0  
     238  hru00238                   hru       238     1.3444E-3                 0  
     239  hru00239                   hru       239     4.4813E-4                 0  
     240  hru00240                   hru       240     1.0307E-2                 0  
     241  hru00241                   hru       241     8.2904E-3                 0  
     242  hru00242                   hru       242     1.6133E-2                 0  
     243  hru00243                   hru       243     8.9626E-4                 0  
     244  hru00244                   hru       244     2.7112E-2                 0  
     245  hru00245                   hru       245     4.4813E-4                 0  
     246  hru00246                   hru       246     1.3444E-3                 0  
     247  hru00247                   hru       247     1.7925E-3                 0  
     248  hru00248                   hru       248     2.0166E-3                 0  
     249  hru00249                   hru       249     3.1369E-3                 0  
     250  hru00250                   hru       250     6.7219E-4                 0  
     251  hru00251                   hru       251     2.0166E-3                 0  
     252  hru00252                   hru       252     1.3444E-3                 0  
     253  hru00253                   hru       253     2.2406E-4                 0  
     254  hru00254                   hru       254     2.2406E-4                 0  
     255  hru00255                   hru       255     2.2406E-4                 0  
     256  hru00256                   hru       256     4.4813E-4                 0  
     257  hru00257                   hru       257     8.9626E-4                 0  
     258  hru00258                   hru       258     8.9626E-4                 0  
     259  hru00259                   hru       259     6.7219E-4                 0  
     260  hru00260                   hru       260     1.3444E-3                 0  
     261  hru00261                   hru       261     8.9626E-4                 0  
     262  hru00262                   hru       262     2.2406E-4                 0  
     263  hru00263                   hru       263     2.2406E-4                 0  
     264  hru00264                   hru       264     1.9310E-2                 0  
     265  hru00265                   hru       265     5.1265E-4                 0  
     266  hru00266                   hru       266     3.4176E-4                 0  
     267  hru00267                   hru       267     2.3530E-1                 0  
     268  hru00268                   hru       268     1.8558E-1                 0  
     269  hru00269                   hru       269     9.7232E-2                 0  
     270  hru00270                   hru       270     3.7081E-2                 0  
     271  hru00271                   hru       271     4.9556E-3                 0  
     272  hru00272                   hru       272     7.3479E-3                 0  
     273  hru00273                   hru       273     1.2645E-2                 0  
     274  hru00274                   hru       274     1.8797E-3                 0  
     275  hru00275                   hru       275     4.6138E-3                 0  
     276  hru00276                   hru       276     7.1770E-3                 0  
     277  hru00277                   hru       277     1.5379E-3                 0  
     278  hru00278                   hru       278     3.1955E-2                 0  
     279  hru00279                   hru       279     5.0239E-2                 0  
     280  hru00280                   hru       280     4.5967E-2                 0  
     281  hru00281                   hru       281     2.5461E-2                 0  
     282  hru00282                   hru       282     4.1012E-3                 0  
     283  hru00283                   hru       283     3.5885E-3                 0  
     284  hru00284                   hru       284     9.7403E-3                 0  
     285  hru00285                   hru       285     8.5441E-4                 0  
     286  hru00286                   hru       286     1.3158E-2                 0  
     287  hru00287                   hru       287     2.9050E-3                 0  
     288  hru00288                   hru       288     1.7601E-2                 0  
     289  hru00289                   hru       289     3.2297E-2                 0  
     290  hru00290                   hru       290     1.3671E-2                 0  
     291  hru00291                   hru       291     1.8455E-2                 0  
     292  hru00292                   hru       292     4.9556E-3                 0  
     293  hru00293                   hru       293     1.4183E-2                 0  
     294  hru00294                   hru       294     9.0567E-3                 0  
     295  hru00295                   hru       295     2.0164E-2                 0  
     296  hru00296                   hru       296     3.7594E-3                 0  
     297  hru00297                   hru       297     1.3671E-3                 0  
     298  hru00298                   hru       298     1.3841E-2                 0  
     299  hru00299                   hru       299     6.3226E-3                 0  
     300  hru00300                   hru       300     1.3671E-2                 0  
     301  hru00301                   hru       301     1.1962E-3                 0  
     302  hru00302                   hru       302     3.4176E-4                 0  
     303  hru00303                   hru       303     2.0506E-3                 0  
     304  hru00304                   hru       304     5.2973E-3                 0  
     305  hru00305                   hru       305     5.1265E-4                 0  
     306  hru00306                   hru       306     8.5441E-4                 0  
     307  hru00307                   hru       307     1.7088E-3                 0  
     308  hru00308                   hru       308     8.5441E-4                 0  
     309  hru00309                   hru       309     1.8797E-3                 0  
     310  hru00310                   hru       310     1.7088E-4                 0  
     311  hru00311                   hru       311     1.7088E-4                 0  
     312  hru00312                   hru       312     6.8353E-4                 0  
     313  hru00313                   hru       313     3.4176E-4                 0  
     314  hru00314                   hru       314     3.4176E-4                 0  
     315  hru00315                   hru       315     1.7088E-4                 0  
     316  hru00316                   hru       316     8.5441E-4                 0  
     317  hru00317                   hru       317     5.1265E-4                 0  
     318  hru00318                   hru       318     1.0253E-3                 0  
     319  hru00319                   hru       319     1.5379E-3                 0  
     320  hru00320                   hru       320     1.7088E-4                 0  
     321  hru00321                   hru       321     5.1265E-4                 0  
     322  hru00322                   hru       322     1.0253E-3                 0  
     323  hru00323                   hru       323     6.8353E-4                 0  
     324  hru00324                   hru       324     3.4176E-4                 0  
     325  hru00325                   hru       325     2.2215E-3                 0  
     326  hru00326                   hru       326     5.1265E-4                 0  
     327  hru00327                   hru       327     1.7088E-4                 0  
     328  hru00328                   hru       328     5.1265E-4                 0  
     329  hru00329                   hru       329     1.7088E-4                 0  
     330  hru00330                   hru       330     3.4176E-4                 0  
     331  hru00331                   hru       331     5.6437E-2                 0  
     332  hru00332                   hru       332     2.2986E-1                 0  
     333  hru00333                   hru       333     8.8183E-2                 0  
     334  hru00334                   hru       334     4.1152E-2                 0  
     335  hru00335                   hru       335     1.4403E-2                 0  
     336  hru00336                   hru       336     8.8183E-4                 0  
     337  hru00337                   hru       337     1.0905E-1                 0  
     338  hru00338                   hru       338     3.5097E-1                 0  
     339  hru00339                   hru       339     3.0276E-2                 0  
     340  hru00340                   hru       340     5.5850E-3                 0  
     341  hru00341                   hru       341     1.4697E-3                 0  
     342  hru00342                   hru       342     2.9394E-4                 0  
     343  hru00343                   hru       343     3.1452E-2                 0  
     344  hru00344                   hru       344     1.4991E-2                 0  
     345  hru00345                   hru       345     1.2052E-2                 0  
     346  hru00346                   hru       346     2.0576E-3                 0  