rout_unit.def: written by SWAT+ editor v3.0.1 on 2024-10-31 16:57 for SWAT+ rev.61.0.1
      id              name  elem_tot  elements  
       1           rtu0010         2      2848     -2885  
       2           rtu0020         2      2778     -2789  
       3           rtu0030         2      2578     -2610  
       4           rtu0040         2     14442    -14478  
       5           rtu0050         2     14522    -14542  
       6           rtu0060         2     14404    -14441  
       7           rtu0070         2     14303    -14324  
       8           rtu0080         2     13991    -14041  
       9           rtu0090         2     13488    -13524  
      10           rtu0100         2     13525    -13557  
      11           rtu0110         2     13282    -13321  
      12           rtu0120         2     13261    -13281  
      13           rtu0130         2     13322    -13420  
      14           rtu0140         2     13606    -13683  
      15           rtu0150         2      7301     -7302  
      16           rtu0160         2      7252     -7300  
      17           rtu0170         2      7147     -7204  
      18           rtu0180         2      7033     -7146  
      19           rtu0190         2      7205     -7251  
      20           rtu0200         2     13421    -13426  
      21           rtu0210         2      6684     -6695  
      22           rtu0220         2     12741    -12786  
      23           rtu0230         2      6696     -6717  
      24           rtu0240         2     12787    -12793  
      25           rtu0250         2      6623     -6672  
      26           rtu0260         2     12523    -12588  
      27           rtu0270         2      6490     -6577  
      28           rtu0280         2      5349     -5357  
      29           rtu0290         2      5358     -5401  
      30           rtu0300         2     12382    -12436  
      31           rtu0310         2      5184     -5271  
      32           rtu0320         2     12193    -12277  
      33           rtu0330         1     12330  
      34           rtu0340         2      5541     -5591  
      35           rtu0350         2      5592     -5631  
      36           rtu0360         2      1698     -1735  
      37           rtu0370         2      5632     -5695  
      38           rtu0380         2      1633     -1697  
      39           rtu0390         2      3810     -3823  
      40           rtu0400         2      3700     -3751  
      41           rtu0410         2      6773     -6889  
      42           rtu0420         2      3609     -3699  
      43           rtu0430         2      9162     -9230  
      44           rtu0440         2     12324    -12329  
      45           rtu0450         2     10269    -10371  
      46           rtu0460         2      3430     -3488  
      47           rtu0470         2     10164    -10220  
      48           rtu0480         1     10694  
      49           rtu0490         2     12589    -12626  
      50           rtu0500         2      1182     -1332  
      51           rtu0510         2      1041     -1043  
      52           rtu0520         2     10592    -10634  
      53           rtu0530         2     10635    -10640  
      54           rtu0540         2      8838     -8941  
      55           rtu0550         2     10641    -10645  
      56           rtu0560         2      9046     -9059  
      57           rtu0570         2      9030     -9045  
      58           rtu0580         2     12437    -12522  
      59           rtu0590         2       670      -735  
      60           rtu0600         2      8788     -8837  
      61           rtu0610         2      6673     -6683  
      62           rtu0620         2     12331    -12381  
      63           rtu0630         2      6578     -6622  
      64           rtu0640         2     10541    -10591  
      65           rtu0650         2      5272     -5348  
      66           rtu0660         2      8484     -8551  
      67           rtu0670         2       472      -545  
      68           rtu0680         2     10881    -10904  
      69           rtu0690         2     11818    -11882  
      70           rtu0700         2      2956     -3089  
      71           rtu0710         2     10905    -10941  
      72           rtu0720         2      2919     -2955  
      73           rtu0730         2      8583     -8641  
      74           rtu0740         2      2332     -2356  
      75           rtu0750         2      5017     -5113  
      76           rtu0760         2     10221    -10268  
      77           rtu0770         2       736      -794  
      78           rtu0780         2      3824     -3919  
      79           rtu0790         2      2703     -2744  
      80           rtu0800         2      8343     -8413  
      81           rtu0810         2     11610    -11669  
      82           rtu0820         2      1569     -1632  
      83           rtu0830         2     12031    -12128  
      84           rtu0840         2      2255     -2291  
      85           rtu0850         2     10842    -10880  
      86           rtu0860         2     14543    -14601  
      87           rtu0870         2       795      -875  
      88           rtu0880         2       929      -964  
      89           rtu0890         2     14516    -14521  
      90           rtu0900         2      2220     -2254  
      91           rtu0910         2      9949    -10006  
      92           rtu0920         2      6159     -6256  
      93           rtu0930         2      8144     -8206  
      94           rtu0940         2      9809     -9867  
      95           rtu0950         2      2108     -2137  
      96           rtu0960         2     14479    -14515  
      97           rtu0970         2      8095     -8143  
      98           rtu0980         2     13237    -13260  
      99           rtu0990         2     11746    -11776  
     100           rtu1000         2      7303     -7359  
     101           rtu1010         2      3978     -4013  
     102           rtu1020         2     10079    -10108  
     103           rtu1030         2     10068    -10078  
     104           rtu1040         2      1005     -1040  
     105           rtu1050         2      6109     -6158  
     106           rtu1060         2      8642     -8677  
     107           rtu1070         2       546      -581  
     108           rtu1080         2      3489     -3532  
     109           rtu1090         2      3920     -3977  
     110           rtu1100         2      2745     -2777  
     111           rtu1110         2      4073     -4078  
     112           rtu1120         2      6020     -6076  
     113           rtu1130         2      1954     -1990  
     114           rtu1140         2      7435     -7480  
     115           rtu1150         2      4938     -5016  
     116           rtu1160         2       630      -669  
     117           rtu1170         2      9662     -9700  
     118           rtu1180         2     10758    -10841  
     119           rtu1190         2     11089    -11148  
     120           rtu1200         2     13166    -13236  
     121           rtu1210         2      2138     -2159  
     122           rtu1220         2      7904     -7967  
     123           rtu1230         2     10007    -10022  
     124           rtu1240         2     11512    -11589  
     125           rtu1250         2     14243    -14302  
     126           rtu1260         2      1366     -1422  
     127           rtu1270         2      4014     -4072  
     128           rtu1280         2      9490     -9561  
     129           rtu1290         2      8288     -8342  
     130           rtu1300         2      7360     -7434  
     131           rtu1310         2      2534     -2577  
     132           rtu1320         2      9701     -9733  
     133           rtu1330         2      4236     -4269  
     134           rtu1340         2      8272     -8287  
     135           rtu1350         2      2072     -2107  
     136           rtu1360         2      5854     -5898  
     137           rtu1370         2       582      -629  
     138           rtu1380         2       264      -330  
     139           rtu1390         2      4841     -4937  
     140           rtu1400         2      8000     -8069  
     141           rtu1410         2     11272    -11300  
     142           rtu1420         2     13558    -13605  
     143           rtu1430         2      2043     -2071  
     144           rtu1440         2      8472     -8483  
     145           rtu1450         2      7847     -7903  
     146           rtu1460         2     14184    -14242  
     147           rtu1470         2      1927     -1953  
     148           rtu1480         2      4270     -4313  
     149           rtu1490         2      4314     -4352  
     150           rtu1500         2      4192     -4235  
     151           rtu1510         2      4079     -4114  
     152           rtu1520         2      4115     -4191  
     153           rtu1530         2      5696     -5753  
     154           rtu1540         2      7611     -7645  
     155           rtu1550         2      5402     -5493  
     156           rtu1560         2      2611     -2702  
     157           rtu1570         2      7646     -7691  
     158           rtu1580         2      3752     -3809  
     159           rtu1590         2      2790     -2847  
     160           rtu1600         2     14661    -14751  
     161           rtu1610         2      3533     -3608  
     162           rtu1620         2      6718     -6772  
     163           rtu1630         2      7551     -7610  
     164           rtu1640         2     14602    -14660  
     165           rtu1650         2      2439     -2492  
     166           rtu1660         2      3270     -3344  
     167           rtu1670         2      7521     -7550  
     168           rtu1680         2      5114     -5183  
     169           rtu1690         2      2493     -2533  
     170           rtu1700         2      7481     -7520  
     171           rtu1710         2      3345     -3429  
     172           rtu1720         2      5494     -5540  
     173           rtu1730         2     14325    -14403  
     174           rtu1740         2      3181     -3269  
     175           rtu1750         2      2383     -2438  
     176           rtu1760         2     14129    -14183  
     177           rtu1770         2     14042    -14093  
     178           rtu1780         2     13736    -13782  
     179           rtu1790         2     14094    -14128  
     180           rtu1800         2      4639     -4738  
     181           rtu1810         2      4739     -4840  
     182           rtu1820         2      3090     -3180  
     183           rtu1830         2     13902    -13930  
     184           rtu1840         2     13684    -13735  
     185           rtu1850         2     13879    -13901  
     186           rtu1860         2     13427    -13487  
     187           rtu1870         2      4546     -4638  
     188           rtu1880         2     13931    -13990  
     189           rtu1890         2      4518     -4545  
     190           rtu1900         2      6415     -6489  
     191           rtu1910         2      6890     -7032  
     192           rtu1920         2     11149    -11236  
     193           rtu1930         2     12680    -12740  
     194           rtu1940         2     11350    -11410  
     195           rtu1950         2      2357     -2382  
     196           rtu1960         2      2292     -2331  
     197           rtu1970         2     13783    -13878  
     198           rtu1980         2      6257     -6370  
     199           rtu1990         2     11411    -11446  
     200           rtu2000         2     13099    -13165  
     201           rtu2010         2      4493     -4517  
     202           rtu2020         2     12924    -13025  
     203           rtu2030         2     12627    -12679  
     204           rtu2040         2      2886     -2918  
     205           rtu2050         2     13026    -13098  
     206           rtu2060         2     11301    -11326  
     207           rtu2070         2     11327    -11349  
     208           rtu2080         2      6371     -6414  
     209           rtu2090         2      2160     -2182  
     210           rtu2100         2      5899     -6019  
     211           rtu2110         2     11237    -11271  
     212           rtu2120         2      2183     -2219  
     213           rtu2130         2      9102     -9161  
     214           rtu2140         2     12794    -12923  
     215           rtu2150         2     10372    -10484  
     216           rtu2160         2      6077     -6108  
     217           rtu2170         2      1897     -1926  
     218           rtu2180         2     12278    -12323  
     219           rtu2190         2      1991     -2042  
     220           rtu2200         2      4353     -4492  
     221           rtu2210         2     10942    -11020  
     222           rtu2220         2     10695    -10757  
     223           rtu2230         2     11021    -11088  
     224           rtu2240         2      5828     -5853  
     225           rtu2250         2      5754     -5777  
     226           rtu2260         2      5778     -5827  
     227           rtu2270         2     11984    -12030  
     228           rtu2280         2     12129    -12192  
     229           rtu2290         2      9060     -9101  
     230           rtu2300         2     10485    -10540  
     231           rtu2310         2      1736     -1771  
     232           rtu2320         2      1827     -1853  
     233           rtu2330         2     10646    -10693  
     234           rtu2340         2      1772     -1826  
     235           rtu2350         2      8678     -8729  
     236           rtu2360         2      1854     -1896  
     237           rtu2370         2      8992     -9029  
     238           rtu2380         2     10109    -10163  
     239           rtu2390         2     11777    -11817  
     240           rtu2400         2      8942     -8991  
     241           rtu2410         2     11670    -11707  
     242           rtu2420         2     11953    -11983  
     243           rtu2430         2     10023    -10067  
     244           rtu2440         2     11883    -11952  
     245           rtu2450         2      8730     -8764  
     246           rtu2460         2      8765     -8787  
     247           rtu2470         2      8414     -8450  
     248           rtu2480         2     11708    -11745  
     249           rtu2490         2      8552     -8582  
     250           rtu2500         2      8451     -8471  
     251           rtu2510         2     11479    -11511  
     252           rtu2520         2      8207     -8247  
     253           rtu2530         2     11590    -11609  
     254           rtu2540         2      8248     -8271  
     255           rtu2550         2      9734     -9808  
     256           rtu2560         2      9868     -9948  
     257           rtu2570         2      9562     -9602  
     258           rtu2580         2      9603     -9661  
     259           rtu2590         2     11447    -11478  
     260           rtu2600         2      9401     -9489  
     261           rtu2610         2      8070     -8094  
     262           rtu2620         2      1423     -1568  
     263           rtu2630         2      9360     -9400  
     264           rtu2640         2      1044     -1065  
     265           rtu2650         2      1333     -1365  
     266           rtu2660         2      7968     -7999  
     267           rtu2670         2      9330     -9359  
     268           rtu2680         2      7771     -7808  
     269           rtu2690         2       965     -1004  
     270           rtu2700         2      9289     -9329  
     271           rtu2710         2      7809     -7846  
     272           rtu2720         2       876      -928  
     273           rtu2730         2      9231     -9288  
     274           rtu2740         2      7731     -7770  
     275           rtu2750         2      1135     -1181  
     276           rtu2760         2      7692     -7730  
     277           rtu2770         2       405      -436  
     278           rtu2780         2      1066     -1134  
     279           rtu2790         2       386      -404  
     280           rtu2800         2       437      -471  
     281           rtu2810         2       215      -263  
     282           rtu2820         2       331      -355  
     283           rtu2830         2       147      -214  
     284           rtu2840         2       356      -385  
     285           rtu2850         2         1      -106  
     286           rtu2860         2       107      -146  
