rout_unit.con: written by SWAT+ editor v3.0.1 on 2024-10-31 16:57 for SWAT+ rev.61.0.1
      id  name                gis_id          area           lat           lon          elev       rtu               wst       cst      ovfl      rule   out_tot       obj_typ    obj_id       hyd_typ          frac  
       1  rtu0010                 10     132.57000      41.67318       2.76116       8.32383         1      s41647n2757e         0         0         0         2           sdc         1           tot       1.00000           aqu         4           rhg       1.00000  
       2  rtu0020                 20      31.05000      41.68837       2.74632      14.13623         2      s41647n2757e         0         0         0         2           sdc         2           tot       1.00000           aqu         4           rhg       1.00000  
       3  rtu0030                 30      53.28000      41.69626       2.73413      18.76014         3      s41647n2757e         0         0         0         2           sdc         3           tot       1.00000           aqu         4           rhg       1.00000  
       4  rtu0040                 40      63.99000      41.70857       2.72456      32.02110         4      s41739n2694e         0         0         0         2           sdc         4           tot       1.00000           aqu        13           rhg       1.00000  
       5  rtu0050                 50      30.96000      41.70336       2.71753      23.99709         5      s41739n2694e         0         0         0         2           sdc         5           tot       1.00000           aqu        13           rhg       1.00000  
       6  rtu0060                 60      98.55000      41.71162       2.70730      28.37717         6      s41739n2694e         0         0         0         2           sdc         6           tot       1.00000           aqu        13           rhg       1.00000  
       7  rtu0070                 70      23.31000      41.72445       2.70237      32.73745         7      s41739n2694e         0         0         0         2           sdc         7           tot       1.00000           aqu        13           rhg       1.00000  
       8  rtu0080                 80     119.88000      41.73429       2.69032      50.46171         8      s41739n2694e         0         0         0         2           sdc         8           tot       1.00000           aqu        13           rhg       1.00000  
       9  rtu0090                 90      17.55000      41.74104       2.69449      55.37436         9      s41739n2694e         0         0         0         2           sdc         9           tot       1.00000           aqu        12           rhg       1.00000  
      10  rtu0100                100      64.17000      41.73845       2.68236      58.90463        10      s41739n2694e         0         0         0         2           sdc        10           tot       1.00000           aqu        12           rhg       1.00000  
      11  rtu0110                110      63.81000      41.74267       2.67083      50.31453        11      s41739n2694e         0         0         0         2           sdc        11           tot       1.00000           aqu        12           rhg       1.00000  
      12  rtu0120                120      20.07000      41.74462       2.66644      50.83857        12      s41739n2694e         0         0         0         2           sdc        12           tot       1.00000           aqu        12           rhg       1.00000  
      13  rtu0130                130     216.27000      41.73900       2.64189      73.52143        13      s41739n2694e         0         0         0         2           sdc        13           tot       1.00000           aqu        12           rhg       1.00000  
      14  rtu0140                140     246.06000      41.72269       2.62926     138.55596        14      s41739n2694e         0         0         0         2           sdc        14           tot       1.00000           aqu        12           rhg       1.00000  
      15  rtu0150                150       0.45000      41.73128       2.62529      60.60000        15      s41739n2694e         0         0         0         2           sdc        15           tot       1.00000           aqu         8           rhg       1.00000  
      16  rtu0160                160     134.73000      41.72447       2.62015     118.12558        16      s41752n2558e         0         0         0         2           sdc        16           tot       1.00000           aqu         8           rhg       1.00000  
      17  rtu0170                170     157.95000      41.73878       2.60812      77.79544        17      s41752n2558e         0         0         0         2           sdc        17           tot       1.00000           aqu         8           rhg       1.00000  
      18  rtu0180                180     256.23000      41.73549       2.59108     117.09800        18      s41752n2558e         0         0         0         2           sdc        18           tot       1.00000           aqu         8           rhg       1.00000  
      19  rtu0190                190     232.47000      41.73258       2.58075      94.79017        19      s41752n2558e         0         0         0         2           sdc        19           tot       1.00000           aqu         8           rhg       1.00000  
      20  rtu0200                200       1.35000      41.74502       2.67021      47.73333        20      s41739n2694e         0         0         0         2           sdc        20           tot       1.00000           aqu        12           rhg       1.00000  
      21  rtu0210                210      17.82000      41.72386       2.57524      77.50000        21      s41752n2558e         0         0         0         2           sdc        21           tot       1.00000           aqu         7           rhg       1.00000  
      22  rtu0220                220      76.14000      41.75180       2.66995      60.65957        22      s41739n2694e         0         0         0         2           sdc        22           tot       1.00000           aqu        11           rhg       1.00000  
      23  rtu0230                230      52.02000      41.72194       2.56740      81.71107        23      s41752n2558e         0         0         0         2           sdc        23           tot       1.00000           aqu         7           rhg       1.00000  
      24  rtu0240                240      21.15000      41.75444       2.67408      49.61702        24      s41739n2694e         0         0         0         2           sdc        24           tot       1.00000           aqu        11           rhg       1.00000  
      25  rtu0250                250      89.01000      41.71962       2.55603      98.16279        25      s41752n2558e         0         0         0         2           sdc        25           tot       1.00000           aqu         7           rhg       1.00000  
      26  rtu0260                260     190.98000      41.77009       2.67642      84.05655        26      s41739n2694e         0         0         0         2           sdc        26           tot       1.00000           aqu        11           rhg       1.00000  
      27  rtu0270                270     426.15000      41.71542       2.54033     143.05829        27      s41752n2558e         0         0         0         2           sdc        27           tot       1.00000           aqu         7           rhg       1.00000  
      28  rtu0280                280       1.35000      41.71021       2.53401     101.20000        28      s41752n2558e         0         0         0         2           sdc        28           tot       1.00000           aqu         6           rhg       1.00000  
      29  rtu0290                290      31.77000      41.70860       2.52916     117.98300        29      s41752n2558e         0         0         0         2           sdc        29           tot       1.00000           aqu         6           rhg       1.00000  
      30  rtu0300                300     124.83000      41.77934       2.67945      86.52415        30      s41739n2694e         0         0         0         2           sdc        30           tot       1.00000           aqu        11           rhg       1.00000  
      31  rtu0310                310     372.15000      41.70777       2.50924     165.75550        31      s41752n2558e         0         0         0         2           sdc        31           tot       1.00000           aqu         6           rhg       1.00000  
      32  rtu0320                320     163.08000      41.78881       2.69211     100.38576        32      s41739n2694e         0         0         0         2           sdc        32           tot       1.00000           aqu        11           rhg       1.00000  
      33  rtu0330                330       0.09000      41.79532       2.70060      68.00000        33      s41739n2694e         0         0         0         2           sdc        33           tot       1.00000           aqu        11           rhg       1.00000  
      34  rtu0340                340     162.36000      41.68910       2.51922     201.78936        34      s41684n2446e         0         0         0         2           sdc        34           tot       1.00000           aqu         6           rhg       1.00000  
      35  rtu0350                350     173.52000      41.68592       2.50963     207.71732        35      s41684n2446e         0         0         0         2           sdc        35           tot       1.00000           aqu         6           rhg       1.00000  
      36  rtu0360                360      80.28000      41.80217       2.70107      97.05157        36      s41739n2694e         0         0         0         2           sdc        36           tot       1.00000           aqu         2           rhg       1.00000  
      37  rtu0370                370     106.65000      41.68465       2.49195     151.31477        37      s41684n2446e         0         0         0         2           sdc        37           tot       1.00000           aqu         6           rhg       1.00000  
      38  rtu0380                380      83.61000      41.81014       2.71078      83.94726        38      s41865n2664e         0         0         0         2           sdc        38           tot       1.00000           aqu         2           rhg       1.00000  
      39  rtu0390                390       3.33000      41.68001       2.48837     144.64865        39      s41684n2446e         0         0         0         2           sdc        39           tot       1.00000           aqu         5           rhg       1.00000  
      40  rtu0400                400      43.38000      41.68306       2.48395     158.10373        40      s41684n2446e         0         0         0         2           sdc        40           tot       1.00000           aqu         5           rhg       1.00000  
      41  rtu0410                410     582.03000      41.75023       2.61188     107.81985        41      s41752n2558e         0         0         0         2           sdc        41           tot       1.00000           aqu         8           rhg       1.00000  
      42  rtu0420                420     288.90000      41.68398       2.45716     191.96573        42      s41684n2446e         0         0         0         2           sdc        42           tot       1.00000           aqu         5           rhg       1.00000  
      43  rtu0430                430     244.62000      41.76445       2.58837     186.04452        43      s41752n2558e         0         0         0         2           sdc        43           tot       1.00000           aqu         9           rhg       1.00000  
      44  rtu0440                440       0.81000      41.79497       2.70112      71.44444        44      s41739n2694e         0         0         0         2           sdc        44           tot       1.00000           aqu        11           rhg       1.00000  
      45  rtu0450                450     377.91000      41.79557       2.71475      87.44487        45      s41739n2694e         0         0         0         2           sdc        45           tot       1.00000           aqu        10           rhg       1.00000  
      46  rtu0460                460     151.65000      41.69720       2.44760     207.46172        46      s41684n2446e         0         0         0         2           sdc        46           tot       1.00000           aqu         5           rhg       1.00000  
      47  rtu0470                470     107.01000      41.80213       2.72744      78.14886        47      s41739n2694e         0         0         0         2           sdc        47           tot       1.00000           aqu        10           rhg       1.00000  
      48  rtu0480                480       0.18000      41.79553       2.72912      65.00000        48      s41739n2694e         0         0         0         2           sdc        48           tot       1.00000           aqu        10           rhg       1.00000  
      49  rtu0490                490      46.44000      41.77486       2.66406      88.31202        49      s41739n2694e         0         0         0         2           sdc        49           tot       1.00000           aqu        11           rhg       1.00000  
      50  rtu0500                500     619.92000      41.84474       2.67450     153.94904        50      s41865n2664e         0         0         0         2           sdc        50           tot       1.00000           aqu         2           rhg       1.00000  
      51  rtu0510                510       0.45000      41.85979       2.65866     127.00000        51      s41865n2664e         0         0         0         2           sdc        51           tot       1.00000           aqu         1           rhg       1.00000  
      52  rtu0520                520     138.96000      41.79288       2.74028      68.27526        52      s41739n2694e         0         0         0         2           sdc        52           tot       1.00000           aqu        10           rhg       1.00000  
      53  rtu0530                530       4.86000      41.79678       2.74796      68.37037        53      s41739n2694e         0         0         0         2           sdc        53           tot       1.00000           aqu        10           rhg       1.00000  
      54  rtu0540                540    1143.45000      41.78616       2.56135     291.36261        54      s41752n2558e         0         0         0         2           sdc        54           tot       1.00000           aqu         9           rhg       1.00000  
      55  rtu0550                550       7.74000      41.79458       2.75345      70.45349        55      s41739n2694e         0         0         0         2           sdc        55           tot       1.00000           aqu        10           rhg       1.00000  
      56  rtu0560                560       6.75000      41.79819       2.54632     209.32000        56      s41752n2558e         0         0         0         2           sdc        56           tot       1.00000           aqu         9           rhg       1.00000  
      57  rtu0570                570       3.69000      41.79989       2.54459     213.24390        57      s41752n2558e         0         0         0         2           sdc        57           tot       1.00000           aqu         9           rhg       1.00000  
      58  rtu0580                580     209.88000      41.77405       2.64945     114.06647        58      s41739n2694e         0         0         0         2           sdc        58           tot       1.00000           aqu        11           rhg       1.00000  
      59  rtu0590                590     550.26000      41.86399       2.64128     247.95224        59      s41865n2664e         0         0         0         2           sdc        59           tot       1.00000           aqu         1           rhg       1.00000  
      60  rtu0600                600      82.53000      41.80469       2.53841     253.42857        60      s41752n2558e         0         0         0         2           sdc        60           tot       1.00000           aqu         9           rhg       1.00000  
      61  rtu0610                610       4.32000      41.72590       2.57251      79.02083        61      s41752n2558e         0         0         0         2           sdc        61           tot       1.00000           aqu         7           rhg       1.00000  
      62  rtu0620                620     103.05000      41.78228       2.64175     148.30480        62      s41739n2694e         0         0         0         2           sdc        62           tot       1.00000           aqu        11           rhg       1.00000  
      63  rtu0630                630      45.27000      41.73061       2.56858      95.38767        63      s41752n2558e         0         0         0         2           sdc        63           tot       1.00000           aqu         7           rhg       1.00000  
      64  rtu0640                640     525.15000      41.79333       2.77831      92.66392        64      s41882n2743e         0         0         0         2           sdc        64           tot       1.00000           aqu        10           rhg       1.00000  
      65  rtu0650                650     139.86000      41.71430       2.52144     141.17503        65      s41752n2558e         0         0         0         2           sdc        65           tot       1.00000           aqu         6           rhg       1.00000  
      66  rtu0660                660     210.87000      41.81156       2.51923     360.07682        66      s41752n2558e         0         0         0         2           sdc        66           tot       1.00000           aqu         9           rhg       1.00000  
      67  rtu0670                670     323.46000      41.87435       2.61631     283.09043        67      s41865n2664e         0         0         0         2           sdc        67           tot       1.00000           aqu         1           rhg       1.00000  
      68  rtu0680                680      34.47000      41.78766       2.78772      87.18277        68      s41882n2743e         0         0         0         2           sdc        68           tot       1.00000           aqu        10           rhg       1.00000  
      69  rtu0690                690     404.73000      41.80145       2.68634     107.70514        69      s41739n2694e         0         0         0         2           sdc        69           tot       1.00000           aqu        11           rhg       1.00000  
      70  rtu0700                700    1042.74000      41.73258       2.41673     472.65683        70      s41774n2438e         0         0         0         2           sdc        70           tot       1.00000           aqu         5           rhg       1.00000  
      71  rtu0710                710      50.40000      41.78612       2.79653      94.75357        71      s41882n2743e         0         0         0         2           sdc        71           tot       1.00000           aqu        10           rhg       1.00000  
      72  rtu0720                720     215.10000      41.75660       2.40323     608.06444        72      s41774n2438e         0         0         0         2           sdc        72           tot       1.00000           aqu         5           rhg       1.00000  
      73  rtu0730                730     301.05000      41.81098       2.54921     358.46248        73      s41752n2558e         0         0         0         2           sdc        73           tot       1.00000           aqu         9           rhg       1.00000  
      74  rtu0740                740      24.84000      41.75397       2.39578     439.46014        74      s41774n2438e         0         0         0         2           sdc        74           tot       1.00000           aqu         3           rhg       1.00000  
      75  rtu0750                750     519.12000      41.70190       2.48465     197.60194        75      s41684n2446e         0         0         0         2           sdc        75           tot       1.00000           aqu         6           rhg       1.00000  
      76  rtu0760                760     312.48000      41.80416       2.76225      81.61953        76      s41882n2743e         0         0         0         2           sdc        76           tot       1.00000           aqu        10           rhg       1.00000  
      77  rtu0770                770     206.82000      41.87101       2.59919     340.08138        77      s41865n2664e         0         0         0         2           sdc        77           tot       1.00000           aqu         1           rhg       1.00000  
      78  rtu0780                780     112.68000      41.67513       2.48381     177.52556        78      s41684n2446e         0         0         0         2           sdc        78           tot       1.00000           aqu         5           rhg       1.00000  
      79  rtu0790                790      52.92000      41.68813       2.73560      25.06973        79      s41647n2757e         0         0         0         2           sdc        79           tot       1.00000           aqu         4           rhg       1.00000  
      80  rtu0800                800     445.23000      41.81696       2.50090     428.63756        80      s41774n2438e         0         0         0         2           sdc        80           tot       1.00000           aqu         9           rhg       1.00000  
      81  rtu0810                810     155.52000      41.81561       2.67510     120.48553        81      s41865n2664e         0         0         0         2           sdc        81           tot       1.00000           aqu        11           rhg       1.00000  
      82  rtu0820                820     184.14000      41.81689       2.72164      86.25904        82      s41882n2743e         0         0         0         2           sdc        82           tot       1.00000           aqu         2           rhg       1.00000  
      83  rtu0830                830     402.30000      41.79247       2.62018     207.58188        83      s41752n2558e         0         0         0         2           sdc        83           tot       1.00000           aqu        11           rhg       1.00000  
      84  rtu0840                840     129.42000      41.75953       2.39118     566.84840        84      s41774n2438e         0         0         0         2           sdc        84           tot       1.00000           aqu         3           rhg       1.00000  
      85  rtu0850                850     158.40000      41.78260       2.76301      80.95682        85      s41739n2694e         0         0         0         2           sdc        85           tot       1.00000           aqu        10           rhg       1.00000  
      86  rtu0860                860     269.55000      41.69809       2.69959      38.39800        86      s41739n2694e         0         0         0         2           sdc        86           tot       1.00000           aqu        13           rhg       1.00000  
      87  rtu0870                870     112.68000      41.87156       2.65311     168.61502        87      s41865n2664e         0         0         0         2           sdc        87           tot       1.00000           aqu         1           rhg       1.00000  
      88  rtu0880                880     247.14000      41.85880       2.59334     457.24982        88      s41865n2664e         0         0         0         2           sdc        88           tot       1.00000           aqu         1           rhg       1.00000  
      89  rtu0890                890       9.90000      41.70504       2.69778      28.00000        89      s41739n2694e         0         0         0         2           sdc        89           tot       1.00000           aqu        13           rhg       1.00000  
      90  rtu0900                900     190.98000      41.76740       2.38620     582.16965        90      s41774n2438e         0         0         0         2           sdc        90           tot       1.00000           aqu         3           rhg       1.00000  
      91  rtu0910                910     477.45000      41.81751       2.77108      93.74910        91      s41882n2743e         0         0         0         2           sdc        91           tot       1.00000           aqu        10           rhg       1.00000  
      92  rtu0920                920     521.28000      41.74993       2.54746     209.67213        92      s41752n2558e         0         0         0         2           sdc        92           tot       1.00000           aqu         7           rhg       1.00000  
      93  rtu0930                930     324.09000      41.82624       2.48278     494.88031        93      s41840n2419e         0         0         0         2           sdc        93           tot       1.00000           aqu         9           rhg       1.00000  
      94  rtu0940                940     509.04000      41.82313       2.74214      84.87588        94      s41882n2743e         0         0         0         2           sdc        94           tot       1.00000           aqu        10           rhg       1.00000  
      95  rtu0950                950      64.17000      41.77843       2.37631     676.82048        95      s41774n2438e         0         0         0         2           sdc        95           tot       1.00000           aqu         3           rhg       1.00000  
      96  rtu0960                960     124.29000      41.70409       2.68525      49.41636        96      s41739n2694e         0         0         0         2           sdc        96           tot       1.00000           aqu        13           rhg       1.00000  
      97  rtu0970                970      81.36000      41.83583       2.47338     581.49447        97      s41840n2419e         0         0         0         2           sdc        97           tot       1.00000           aqu         9           rhg       1.00000  
      98  rtu0980                980      33.39000      41.74588       2.66088      52.01348        98      s41739n2694e         0         0         0         2           sdc        98           tot       1.00000           aqu        12           rhg       1.00000  
      99  rtu0990                990     153.18000      41.80506       2.60628     270.50176        99      s41752n2558e         0         0         0         2           sdc        99           tot       1.00000           aqu        11           rhg       1.00000  
     100  rtu1000               1000     177.39000      41.71957       2.61063     112.92643       100      s41752n2558e         0         0         0         2           sdc       100           tot       1.00000           aqu         8           rhg       1.00000  
     101  rtu1010               1010      13.23000      41.67171       2.47682     162.21088       101      s41684n2446e         0         0         0         2           sdc       101           tot       1.00000           aqu         5           rhg       1.00000  
     102  rtu1020               1020      66.15000      41.82312       2.78400      92.69116       102      s41882n2743e         0         0         0         2           sdc       102           tot       1.00000           aqu        10           rhg       1.00000  
     103  rtu1030               1030       1.53000      41.82677       2.78233      81.35294       103      s41882n2743e         0         0         0         2           sdc       103           tot       1.00000           aqu        10           rhg       1.00000  
     104  rtu1040               1040     361.26000      41.85276       2.57793     462.51271       104      s41865n2664e         0         0         0         2           sdc       104           tot       1.00000           aqu         1           rhg       1.00000  
     105  rtu1050               1050     101.52000      41.77262       2.51996     450.79610       105      s41752n2558e         0         0         0         2           sdc       105           tot       1.00000           aqu         7           rhg       1.00000  
     106  rtu1060               1060      54.27000      41.81392       2.48943     456.78773       106      s41774n2438e         0         0         0         2           sdc       106           tot       1.00000           aqu         9           rhg       1.00000  
     107  rtu1070               1070     333.45000      41.86747       2.56654     436.82186       107      s41865n2664e         0         0         0         2           sdc       107           tot       1.00000           aqu         1           rhg       1.00000  
     108  rtu1080               1080      61.47000      41.69135       2.44609     201.38507       108      s41684n2446e         0         0         0         2           sdc       108           tot       1.00000           aqu         5           rhg       1.00000  
     109  rtu1090               1090      49.14000      41.67107       2.47143     174.86447       109      s41684n2446e         0         0         0         2           sdc       109           tot       1.00000           aqu         5           rhg       1.00000  
     110  rtu1100               1100      34.38000      41.69008       2.75385      19.52618       110      s41647n2757e         0         0         0         2           sdc       110           tot       1.00000           aqu         4           rhg       1.00000  