slr.cli: Solar radiation file names - file written by SWAT+ editor 2024-07-19 18:08:06.733867
filename
Dosrius_slr.slr
Malgrat_slr.slr
PSesolles_slr.slr
Viladrau_slr.slr
