soils.sol: written by SWAT+ editor v3.0.1 on 2024-10-31 16:58 for SWAT+ rev.61.0.1
name                            nly           hyd_grp        dp_tot    anion_excl      perc_crk  texture                              dp            bd           awc        soil_k        carbon          clay          silt          sand          rock           alb        usle_k            ec         caco3            ph  
TORD6                             2                 C       0.00000       0.50000       0.50000  a                          
                                                                                                                               300.00000       1.25000       0.20000       1.00000       1.30000      20.00000      40.00000      30.00000      10.00000       0.10000       0.20000       0.00000       0.00000       0.00000  
                                                                                                                               350.00000       1.25000       0.20000       5.00000       1.00000      20.00000      40.00000      30.00000      10.00000       0.10000       0.20000       0.00000       0.00000       0.00000  
TORD2                             2                 A       0.00000       0.50000       0.50000  a                          
                                                                                                                               250.00000       1.25000       0.20000      30.00000       0.80000      10.00000      25.00000      35.00000      30.00000       0.10000       0.35000       0.00000       0.00000       0.00000  
                                                                                                                               250.10000       1.25000       0.20000      40.00000       0.60000      10.00000      25.00000      35.00000      30.00000       0.10000       0.35000       0.00000       0.00000       0.00000  
TORD7                             2                 A       0.00000       0.50000       0.50000  a                          
                                                                                                                               300.00000       1.25000       0.20000      20.00000       1.50000      15.00000      30.00000      15.00000      40.00000       0.10000       0.20000       0.00000       0.00000       0.00000  
                                                                                                                              1200.00000       1.25000       0.20000      30.00000       1.00000      15.00000      30.00000      15.00000      40.00000       0.10000       0.20000       0.00000       0.00000       0.00000  
TORD4                             2                 C       0.00000       0.50000       0.50000  a                          
                                                                                                                               300.00000       1.25000       0.15000       1.00000       2.00000      45.00000      30.00000      20.00000       5.00000       0.10000       0.20000       0.00000       0.00000       0.00000  
                                                                                                                              1200.00000       1.25000       0.15000       2.00000       0.90000      45.00000      30.00000      20.00000       5.00000       0.10000       0.20000       0.00000       0.00000       0.00000  
TORD8                             2                 C       0.00000       0.50000       0.50000  a                          
                                                                                                                               300.00000       1.25000       0.15000       2.00000       1.10000      28.00000      35.00000      27.00000      10.00000       0.10000       0.20000       0.00000       0.00000       0.00000  
                                                                                                                              1400.00000       1.25000       0.15000       5.00000       0.80000      28.00000      35.00000      27.00000      10.00000       0.10000       0.20000       0.00000       0.00000       0.00000  
TORD9                             2                 C       0.00000       0.50000       0.50000  a                          
                                                                                                                               250.00000       1.25000       0.18000       5.00000       2.50000      40.00000      40.00000      10.00000      10.00000       0.10000       0.20000       0.00000       0.00000       0.00000  
                                                                                                                               250.10000       1.25000       0.18000      10.00000       1.00000      40.00000      40.00000      10.00000      10.00000       0.10000       0.20000       0.00000       0.00000       0.00000  
TORD1                             2                 B       0.00000       0.50000       0.50000  a                          
                                                                                                                               300.00000       1.25000       0.15000      50.00000       1.10000       5.00000      25.00000      30.00000      40.00000       0.10000       0.20000       0.00000       0.00000       0.00000  
                                                                                                                               350.00000       1.25000       0.15000      70.00000       0.80000       5.00000      25.00000      30.00000      40.00000       0.10000       0.20000       0.00000       0.00000       0.00000  
TORD5                             2                 B       0.00000       0.50000       0.50000  a                          
                                                                                                                               300.00000       1.25000       0.17000      28.00000       0.80000       5.00000      20.00000      50.00000      25.00000       0.10000       0.35000       0.00000       0.00000       0.00000  
                                                                                                                               350.00000       1.25000       0.20000      45.00000       0.60000       5.00000      20.00000      50.00000      25.00000       0.10000       0.35000       0.00000       0.00000       0.00000  
