sweep.ops: written by SWAT+ editor v3.0.1 on 2024-10-31 16:58 for SWAT+ rev.61.0.1
name                   swp_eff     frac_curb  description
high_eff               0.80000       0.90000  
