time.sim: written by SWAT+ editor v3.0.1 on 2024-10-31 16:57 for SWAT+ rev.61.0.1
day_start  yrc_start   day_end   yrc_end      step  
       0      2011         0      2022         0  
