tmp.cli: Temperature file names - file written by SWAT+ editor 2024-07-19 18:08:06.889902
filename
Breda_t.tmp
Dosrius_t.tmp
Fogars_t.tmp
Malgrat_t.tmp
PalauTord_t.tmp
PSesolles_t.tmp
StColo_t.tmp
StHilari_t.tmp
Tagam_t.tmp
Viladrau_t.tmp
Vilobi_t.tmp
