topography.hyd: written by SWAT+ editor v3.0.1 on 2024-10-31 16:58 for SWAT+ rev.61.0.1
name                       slp       slp_len       lat_len      dist_cha         depos  
topohru00001           0.12129      10.00000      10.00000     121.00000       0.00000  
topohru00002           0.59580      10.00000      10.00000     121.00000       0.00000  
topohru00003           0.35278      10.00000      10.00000     121.00000       0.00000  
topohru00004           0.23907      10.00000      10.00000     121.00000       0.00000  
topohru00005           0.03917      60.00000      60.00000     121.00000       0.00000  
topohru00006           0.02771      90.00000      90.00000     121.00000       0.00000  
topohru00007           0.33517      10.00000      10.00000     121.00000       0.00000  
topohru00008           0.22419      10.00000      10.00000     121.00000       0.00000  
topohru00009           0.51969      10.00000      10.00000     121.00000       0.00000  
topohru00010           0.13136      10.00000      10.00000     121.00000       0.00000  
topohru00011           0.02121      90.00000      90.00000     121.00000       0.00000  
topohru00012           0.20637      10.00000      10.00000     121.00000       0.00000  
topohru00013           0.12652      10.00000      10.00000     121.00000       0.00000  
topohru00014           0.20799      10.00000      10.00000     121.00000       0.00000  
topohru00015           0.12827      10.00000      10.00000     121.00000       0.00000  
topohru00016           0.07713      30.00000      30.00000     121.00000       0.00000  
topohru00017           0.24306      10.00000      10.00000     121.00000       0.00000  
topohru00018           0.35880      10.00000      10.00000     121.00000       0.00000  
topohru00019           0.56856      10.00000      10.00000     121.00000       0.00000  
topohru00020           0.14565      10.00000      10.00000     121.00000       0.00000  
topohru00021           0.03047      60.00000      60.00000     121.00000       0.00000  
topohru00022           0.49175      10.00000      10.00000     121.00000       0.00000  
topohru00023           0.34439      10.00000      10.00000     121.00000       0.00000  
topohru00024           0.14029      10.00000      10.00000     121.00000       0.00000  
topohru00025           0.23735      10.00000      10.00000     121.00000       0.00000  
topohru00026           0.03658      60.00000      60.00000     121.00000       0.00000  
topohru00027           0.11320      10.00000      10.00000     121.00000       0.00000  
topohru00028           0.02623      90.00000      90.00000     121.00000       0.00000  
topohru00029           0.49652      10.00000      10.00000     121.00000       0.00000  
topohru00030           0.25164      10.00000      10.00000     121.00000       0.00000  
topohru00031           0.31678      10.00000      10.00000     121.00000       0.00000  
topohru00032           0.48416      10.00000      10.00000     121.00000       0.00000  
topohru00033           0.22118      10.00000      10.00000     121.00000       0.00000  
topohru00034           0.13826      10.00000      10.00000     121.00000       0.00000  
topohru00035           0.04989      60.00000      60.00000     121.00000       0.00000  
topohru00036           0.34498      10.00000      10.00000     121.00000       0.00000  
topohru00037           0.54635      10.00000      10.00000     121.00000       0.00000  
topohru00038           0.23139      10.00000      10.00000     121.00000       0.00000  
topohru00039           0.09442      10.00000      10.00000     121.00000       0.00000  
topohru00040           0.06359      30.00000      30.00000     121.00000       0.00000  
topohru00041           0.34207      10.00000      10.00000     121.00000       0.00000  
topohru00042           0.46763      10.00000      10.00000     121.00000       0.00000  
topohru00043           0.23970      10.00000      10.00000     121.00000       0.00000  
topohru00044           0.13837      10.00000      10.00000     121.00000       0.00000  
topohru00045           0.02589      90.00000      90.00000     121.00000       0.00000  
topohru00046           0.13087      10.00000      10.00000     121.00000       0.00000  
topohru00047           0.03829      60.00000      60.00000     121.00000       0.00000  
topohru00048           0.34527      10.00000      10.00000     121.00000       0.00000  
topohru00049           0.44466      10.00000      10.00000     121.00000       0.00000  
topohru00050           0.22987      10.00000      10.00000     121.00000       0.00000  
topohru00051           0.13362      10.00000      10.00000     121.00000       0.00000  
topohru00052           0.21553      10.00000      10.00000     121.00000       0.00000  
topohru00053           0.06516      30.00000      30.00000     121.00000       0.00000  
topohru00054           0.24308      10.00000      10.00000     121.00000       0.00000  
topohru00055           0.14511      10.00000      10.00000     121.00000       0.00000  
topohru00056           0.07031      30.00000      30.00000     121.00000       0.00000  
topohru00057           0.32747      10.00000      10.00000     121.00000       0.00000  
topohru00058           0.12848      10.00000      10.00000     121.00000       0.00000  
topohru00059           0.23047      10.00000      10.00000     121.00000       0.00000  
topohru00060           0.43910      10.00000      10.00000     121.00000       0.00000  
topohru00061           0.32638      10.00000      10.00000     121.00000       0.00000  
topohru00062           0.03204      60.00000      60.00000     121.00000       0.00000  
topohru00063           0.00495     121.00000     121.00000     121.00000       0.00000  
topohru00064           0.11909      10.00000      10.00000     121.00000       0.00000  
topohru00065           0.21380      10.00000      10.00000     121.00000       0.00000  
topohru00066           0.13723      10.00000      10.00000     121.00000       0.00000  
topohru00067           0.31911      10.00000      10.00000     121.00000       0.00000  
topohru00068           0.43551      10.00000      10.00000     121.00000       0.00000  
topohru00069           0.26736      10.00000      10.00000     121.00000       0.00000  
topohru00070           0.14887      10.00000      10.00000     121.00000       0.00000  
topohru00071           0.05754      30.00000      30.00000     121.00000       0.00000  
topohru00072           0.13792      10.00000      10.00000     121.00000       0.00000  
topohru00073           0.23783      10.00000      10.00000     121.00000       0.00000  
topohru00074           0.33131      10.00000      10.00000     121.00000       0.00000  
topohru00075           0.42549      10.00000      10.00000     121.00000       0.00000  
topohru00076           0.23758      10.00000      10.00000     121.00000       0.00000  
topohru00077           0.12816      10.00000      10.00000     121.00000       0.00000  
topohru00078           0.01811      90.00000      90.00000     121.00000       0.00000  
topohru00079           0.22234      10.00000      10.00000     121.00000       0.00000  
topohru00080           0.12441      10.00000      10.00000     121.00000       0.00000  
topohru00081           0.07374      30.00000      30.00000     121.00000       0.00000  
topohru00082           0.31082      10.00000      10.00000     121.00000       0.00000  
topohru00083           0.03637      60.00000      60.00000     121.00000       0.00000  
topohru00084           0.23035      10.00000      10.00000     121.00000       0.00000  
topohru00085           0.15718      10.00000      10.00000     121.00000       0.00000  
topohru00086           0.31707      10.00000      10.00000     121.00000       0.00000  
topohru00087           0.44693      10.00000      10.00000     121.00000       0.00000  
topohru00088           0.36965      10.00000      10.00000     121.00000       0.00000  
topohru00089           0.43892      10.00000      10.00000     121.00000       0.00000  
topohru00090           0.13782      10.00000      10.00000     121.00000       0.00000  
topohru00091           0.11736      10.00000      10.00000     121.00000       0.00000  
topohru00092           0.29638      10.00000      10.00000     121.00000       0.00000  
topohru00093           0.21527      10.00000      10.00000     121.00000       0.00000  
topohru00094           0.07147      30.00000      30.00000     121.00000       0.00000  
topohru00095           0.30062      10.00000      10.00000     121.00000       0.00000  
topohru00096           0.24752      10.00000      10.00000     121.00000       0.00000  
topohru00097           0.15640      10.00000      10.00000     121.00000       0.00000  
topohru00098           0.02071      90.00000      90.00000     121.00000       0.00000  
topohru00099           0.35117      10.00000      10.00000     121.00000       0.00000  
topohru00100           0.42232      10.00000      10.00000     121.00000       0.00000  
topohru00101           0.13947      10.00000      10.00000     121.00000       0.00000  
topohru00102           0.23132      10.00000      10.00000     121.00000       0.00000  
topohru00103           0.02381      90.00000      90.00000     121.00000       0.00000  
topohru00104           0.12659      10.00000      10.00000     121.00000       0.00000  
topohru00105           0.14661      10.00000      10.00000     121.00000       0.00000  
topohru00106           0.25771      10.00000      10.00000     121.00000       0.00000  
topohru00107           0.35344      10.00000      10.00000     121.00000       0.00000  
topohru00108           0.55101      10.00000      10.00000     121.00000       0.00000  
topohru00109           0.24639      10.00000      10.00000     121.00000       0.00000  
topohru00110           0.13864      10.00000      10.00000     121.00000       0.00000  
topohru00111           0.05495      30.00000      30.00000     121.00000       0.00000  
topohru00112           0.35724      10.00000      10.00000     121.00000       0.00000  
topohru00113           0.55139      10.00000      10.00000     121.00000       0.00000  
topohru00114           0.24537      10.00000      10.00000     121.00000       0.00000  
topohru00115           0.13129      10.00000      10.00000     121.00000       0.00000  
topohru00116           0.04424      60.00000      60.00000     121.00000       0.00000  
topohru00117           0.23158      10.00000      10.00000     121.00000       0.00000  
topohru00118           0.02612      90.00000      90.00000     121.00000       0.00000  
topohru00119           0.16572      10.00000      10.00000     121.00000       0.00000  
topohru00120           0.35868      10.00000      10.00000     121.00000       0.00000  
topohru00121           0.56756      10.00000      10.00000     121.00000       0.00000  
topohru00122           0.24622      10.00000      10.00000     121.00000       0.00000  
topohru00123           0.15300      10.00000      10.00000     121.00000       0.00000  
topohru00124           0.34949      10.00000      10.00000     121.00000       0.00000  
topohru00125           0.12609      10.00000      10.00000     121.00000       0.00000  
topohru00126           0.50691      10.00000      10.00000     121.00000       0.00000  
topohru00127           0.25124      10.00000      10.00000     121.00000       0.00000  
topohru00128           0.36112      10.00000      10.00000     121.00000       0.00000  
topohru00129           0.59146      10.00000      10.00000     121.00000       0.00000  
topohru00130           0.24162      10.00000      10.00000     121.00000       0.00000  
topohru00131           0.16449      10.00000      10.00000     121.00000       0.00000  
topohru00132           0.06500      30.00000      30.00000     121.00000       0.00000  
topohru00133           0.35768      10.00000      10.00000     121.00000       0.00000  
topohru00134           0.52349      10.00000      10.00000     121.00000       0.00000  
topohru00135           0.24103      10.00000      10.00000     121.00000       0.00000  
topohru00136           0.04454      60.00000      60.00000     121.00000       0.00000  
topohru00137           0.12951      10.00000      10.00000     121.00000       0.00000  
topohru00138           0.53941      10.00000      10.00000     121.00000       0.00000  
topohru00139           0.15132      10.00000      10.00000     121.00000       0.00000  
topohru00140           0.23748      10.00000      10.00000     121.00000       0.00000  
topohru00141           0.35512      10.00000      10.00000     121.00000       0.00000  
topohru00142           0.25969      10.00000      10.00000     121.00000       0.00000  
topohru00143           0.37141      10.00000      10.00000     121.00000       0.00000  
topohru00144           0.55320      10.00000      10.00000     121.00000       0.00000  
topohru00145           0.22664      10.00000      10.00000     121.00000       0.00000  
topohru00146           0.39578      10.00000      10.00000     121.00000       0.00000  
topohru00147           0.57171      10.00000      10.00000     121.00000       0.00000  
topohru00148           0.35508      10.00000      10.00000     121.00000       0.00000  
topohru00149           0.23322      10.00000      10.00000     121.00000       0.00000  
topohru00150           0.14202      10.00000      10.00000     121.00000       0.00000  
topohru00151           0.06798      30.00000      30.00000     121.00000       0.00000  
topohru00152           0.34772      10.00000      10.00000     121.00000       0.00000  
topohru00153           0.23884      10.00000      10.00000     121.00000       0.00000  
topohru00154           0.04585      60.00000      60.00000     121.00000       0.00000  
topohru00155           0.13120      10.00000      10.00000     121.00000       0.00000  
topohru00156           0.48333      10.00000      10.00000     121.00000       0.00000  
topohru00157           0.00766     121.00000     121.00000     121.00000       0.00000  
topohru00158           0.13413      10.00000      10.00000     121.00000       0.00000  
topohru00159           0.20307      10.00000      10.00000     121.00000       0.00000  
topohru00160           0.54289      10.00000      10.00000     121.00000       0.00000  
topohru00161           0.36718      10.00000      10.00000     121.00000       0.00000  
topohru00162           0.22533      10.00000      10.00000     121.00000       0.00000  
topohru00163           0.12552      10.00000      10.00000     121.00000       0.00000  
topohru00164           0.04033      60.00000      60.00000     121.00000       0.00000  
topohru00165           0.50500      10.00000      10.00000     121.00000       0.00000  
topohru00166           0.35235      10.00000      10.00000     121.00000       0.00000  
topohru00167           0.03228      60.00000      60.00000     121.00000       0.00000  
topohru00168           0.12556      10.00000      10.00000     121.00000       0.00000  
topohru00169           0.23245      10.00000      10.00000     121.00000       0.00000  
topohru00170           0.14523      10.00000      10.00000     121.00000       0.00000  
topohru00171           0.02998      90.00000      90.00000     121.00000       0.00000  
topohru00172           0.57714      10.00000      10.00000     121.00000       0.00000  
topohru00173           0.38072      10.00000      10.00000     121.00000       0.00000  
topohru00174           0.24162      10.00000      10.00000     121.00000       0.00000  
topohru00175           0.12138      10.00000      10.00000     121.00000       0.00000  
topohru00176           0.07345      30.00000      30.00000     121.00000       0.00000  
topohru00177           0.50242      10.00000      10.00000     121.00000       0.00000  
topohru00178           0.34223      10.00000      10.00000     121.00000       0.00000  
topohru00179           0.23483      10.00000      10.00000     121.00000       0.00000  
topohru00180           0.13643      10.00000      10.00000     121.00000       0.00000  
topohru00181           0.04748      60.00000      60.00000     121.00000       0.00000  
topohru00182           0.06101      30.00000      30.00000     121.00000       0.00000  
topohru00183           0.16106      10.00000      10.00000     121.00000       0.00000  
topohru00184           0.26646      10.00000      10.00000     121.00000       0.00000  
topohru00185           0.61101      10.00000      10.00000     121.00000       0.00000  
topohru00186           0.16254      10.00000      10.00000     121.00000       0.00000  
topohru00187           0.39578      10.00000      10.00000     121.00000       0.00000  
topohru00188           0.22924      10.00000      10.00000     121.00000       0.00000  
topohru00189           0.33556      10.00000      10.00000     121.00000       0.00000  
topohru00190           0.14154      10.00000      10.00000     121.00000       0.00000  
topohru00191           0.04238      60.00000      60.00000     121.00000       0.00000  
topohru00192           0.16263      10.00000      10.00000     121.00000       0.00000  
topohru00193           0.23151      10.00000      10.00000     121.00000       0.00000  
topohru00194           0.27361      10.00000      10.00000     121.00000       0.00000  
topohru00195           0.15786      10.00000      10.00000     121.00000       0.00000  
topohru00196           0.43239      10.00000      10.00000     121.00000       0.00000  
topohru00197           0.33098      10.00000      10.00000     121.00000       0.00000  
topohru00198           0.24379      10.00000      10.00000     121.00000       0.00000  
topohru00199           0.05260      30.00000      30.00000     121.00000       0.00000  
topohru00200           0.12951      10.00000      10.00000     121.00000       0.00000  
topohru00201           0.12504      10.00000      10.00000     121.00000       0.00000  
topohru00202           0.40411      10.00000      10.00000     121.00000       0.00000  
topohru00203           0.23834      10.00000      10.00000     121.00000       0.00000  
topohru00204           0.33374      10.00000      10.00000     121.00000       0.00000  
topohru00205           0.14454      10.00000      10.00000     121.00000       0.00000  
topohru00206           0.05878      30.00000      30.00000     121.00000       0.00000  
topohru00207           0.45210      10.00000      10.00000     121.00000       0.00000  
topohru00208           0.13392      10.00000      10.00000     121.00000       0.00000  
topohru00209           0.34714      10.00000      10.00000     121.00000       0.00000  
topohru00210           0.18522      10.00000      10.00000     121.00000       0.00000  
topohru00211           0.26329      10.00000      10.00000     121.00000       0.00000  
topohru00212           0.16408      10.00000      10.00000     121.00000       0.00000  
topohru00213           0.06140      30.00000      30.00000     121.00000       0.00000  
topohru00214           0.30945      10.00000      10.00000     121.00000       0.00000  
topohru00215           0.23787      10.00000      10.00000     121.00000       0.00000  
topohru00216           0.35175      10.00000      10.00000     121.00000       0.00000  
topohru00217           0.13589      10.00000      10.00000     121.00000       0.00000  
topohru00218           0.57631      10.00000      10.00000     121.00000       0.00000  
topohru00219           0.04327      60.00000      60.00000     121.00000       0.00000  
topohru00220           0.55824      10.00000      10.00000     121.00000       0.00000  
topohru00221           0.11153      10.00000      10.00000     121.00000       0.00000  
topohru00222           0.22824      10.00000      10.00000     121.00000       0.00000  
topohru00223           0.34981      10.00000      10.00000     121.00000       0.00000  
topohru00224           0.05256      30.00000      30.00000     121.00000       0.00000  
topohru00225           0.35479      10.00000      10.00000     121.00000       0.00000  
topohru00226           0.24319      10.00000      10.00000     121.00000       0.00000  
topohru00227           0.14376      10.00000      10.00000     121.00000       0.00000  
topohru00228           0.57214      10.00000      10.00000     121.00000       0.00000  
topohru00229           0.05570      30.00000      30.00000     121.00000       0.00000  
topohru00230           0.54405      10.00000      10.00000     121.00000       0.00000  
topohru00231           0.15074      10.00000      10.00000     121.00000       0.00000  
topohru00232           0.22016      10.00000      10.00000     121.00000       0.00000  
topohru00233           0.33990      10.00000      10.00000     121.00000       0.00000  
topohru00234           0.24192      10.00000      10.00000     121.00000       0.00000  
topohru00235           0.11677      10.00000      10.00000     121.00000       0.00000  
topohru00236           0.05485      30.00000      30.00000     121.00000       0.00000  
topohru00237           0.38073      10.00000      10.00000     121.00000       0.00000  
topohru00238           0.48724      10.00000      10.00000     121.00000       0.00000  
topohru00239           0.26498      10.00000      10.00000     121.00000       0.00000  
topohru00240           0.23722      10.00000      10.00000     121.00000       0.00000  
topohru00241           0.14921      10.00000      10.00000     121.00000       0.00000  
topohru00242           0.35226      10.00000      10.00000     121.00000       0.00000  
topohru00243           0.07101      30.00000      30.00000     121.00000       0.00000  
topohru00244           0.51761      10.00000      10.00000     121.00000       0.00000  
topohru00245           0.51203      10.00000      10.00000     121.00000       0.00000  
topohru00246           0.24510      10.00000      10.00000     121.00000       0.00000  
topohru00247           0.35036      10.00000      10.00000     121.00000       0.00000  
topohru00248           0.14065      10.00000      10.00000     121.00000       0.00000  
topohru00249           0.22742      10.00000      10.00000     121.00000       0.00000  
topohru00250           0.02964      90.00000      90.00000     121.00000       0.00000  
topohru00251           0.34345      10.00000      10.00000     121.00000       0.00000  
topohru00252           0.58204      10.00000      10.00000     121.00000       0.00000  
topohru00253           0.30713      10.00000      10.00000     121.00000       0.00000  
topohru00254           0.09816      10.00000      10.00000     121.00000       0.00000  
topohru00255           0.21749      10.00000      10.00000     121.00000       0.00000  
topohru00256           0.36184      10.00000      10.00000     121.00000       0.00000  
topohru00257           0.22055      10.00000      10.00000     121.00000       0.00000  
topohru00258           0.45164      10.00000      10.00000     121.00000       0.00000  
topohru00259           0.30574      10.00000      10.00000     121.00000       0.00000  
topohru00260           0.13294      10.00000      10.00000     121.00000       0.00000  
topohru00261           0.05580      30.00000      30.00000     121.00000       0.00000  
topohru00262           0.49428      10.00000      10.00000     121.00000       0.00000  
topohru00263           0.05780      30.00000      30.00000     121.00000       0.00000  
topohru00264           0.63063      10.00000      10.00000     121.00000       0.00000  
topohru00265           0.25621      10.00000      10.00000     121.00000       0.00000  
topohru00266           0.40655      10.00000      10.00000     121.00000       0.00000  
topohru00267           0.52681      10.00000      10.00000     121.00000       0.00000  
topohru00268           0.34965      10.00000      10.00000     121.00000       0.00000  
topohru00269           0.24171      10.00000      10.00000     121.00000       0.00000  
topohru00270           0.13694      10.00000      10.00000     121.00000       0.00000  
topohru00271           0.05108      30.00000      30.00000     121.00000       0.00000  
topohru00272           0.22253      10.00000      10.00000     121.00000       0.00000  
topohru00273           0.13312      10.00000      10.00000     121.00000       0.00000  
topohru00274           0.51076      10.00000      10.00000     121.00000       0.00000  
topohru00275           0.35478      10.00000      10.00000     121.00000       0.00000  
topohru00276           0.03636      60.00000      60.00000     121.00000       0.00000  
topohru00277           0.58391      10.00000      10.00000     121.00000       0.00000  
topohru00278           0.50101      10.00000      10.00000     121.00000       0.00000  
topohru00279           0.34391      10.00000      10.00000     121.00000       0.00000  
topohru00280           0.23597      10.00000      10.00000     121.00000       0.00000  
topohru00281           0.13800      10.00000      10.00000     121.00000       0.00000  
topohru00282           0.05151      30.00000      30.00000     121.00000       0.00000  
topohru00283           0.34137      10.00000      10.00000     121.00000       0.00000  
topohru00284           0.22465      10.00000      10.00000     121.00000       0.00000  
topohru00285           0.45346      10.00000      10.00000     121.00000       0.00000  
topohru00286           0.13533      10.00000      10.00000     121.00000       0.00000  
topohru00287           0.04262      60.00000      60.00000     121.00000       0.00000  
topohru00288           0.22632      10.00000      10.00000     121.00000       0.00000  
topohru00289           0.54996      10.00000      10.00000     121.00000       0.00000  
topohru00290           0.12993      10.00000      10.00000     121.00000       0.00000  
topohru00291           0.35170      10.00000      10.00000     121.00000       0.00000  
topohru00292           0.04291      60.00000      60.00000     121.00000       0.00000  
topohru00293           0.12623      10.00000      10.00000     121.00000       0.00000  
topohru00294           0.22743      10.00000      10.00000     121.00000       0.00000  
topohru00295           0.03295      60.00000      60.00000     121.00000       0.00000  
topohru00296           0.34937      10.00000      10.00000     121.00000       0.00000  
topohru00297           0.50382      10.00000      10.00000     121.00000       0.00000  
topohru00298           0.13493      10.00000      10.00000     121.00000       0.00000  
topohru00299           0.33516      10.00000      10.00000     121.00000       0.00000  
topohru00300           0.23440      10.00000      10.00000     121.00000       0.00000  
topohru00301           0.48262      10.00000      10.00000     121.00000       0.00000  
topohru00302           0.06579      30.00000      30.00000     121.00000       0.00000  
topohru00303           0.21193      10.00000      10.00000     121.00000       0.00000  
topohru00304           0.12641      10.00000      10.00000     121.00000       0.00000  
topohru00305           0.35693      10.00000      10.00000     121.00000       0.00000  
topohru00306           0.04836      60.00000      60.00000     121.00000       0.00000  
topohru00307           0.22567      10.00000      10.00000     121.00000       0.00000  
topohru00308           0.35854      10.00000      10.00000     121.00000       0.00000  
topohru00309           0.15226      10.00000      10.00000     121.00000       0.00000  
topohru00310           0.02568      90.00000      90.00000     121.00000       0.00000  
topohru00311           0.42210      10.00000      10.00000     121.00000       0.00000  
topohru00312           0.22880      10.00000      10.00000     121.00000       0.00000  
topohru00313           0.34955      10.00000      10.00000     121.00000       0.00000  
topohru00314           0.12100      10.00000      10.00000     121.00000       0.00000  
topohru00315           0.07465      30.00000      30.00000     121.00000       0.00000  
topohru00316           0.21457      10.00000      10.00000     121.00000       0.00000  
topohru00317           0.31851      10.00000      10.00000     121.00000       0.00000  
topohru00318           0.01617      90.00000      90.00000     121.00000       0.00000  
topohru00319           0.11323      10.00000      10.00000     121.00000       0.00000  
topohru00320           0.48752      10.00000      10.00000     121.00000       0.00000  
topohru00321           0.23792      10.00000      10.00000     121.00000       0.00000  
topohru00322           0.10787      10.00000      10.00000     121.00000       0.00000  
topohru00323           0.03883      60.00000      60.00000     121.00000       0.00000  
topohru00324           0.25681      10.00000      10.00000     121.00000       0.00000  
topohru00325           0.11087      10.00000      10.00000     121.00000       0.00000  
topohru00326           0.04477      60.00000      60.00000     121.00000       0.00000  
topohru00327           0.21126      10.00000      10.00000     121.00000       0.00000  
topohru00328           0.03062      60.00000      60.00000     121.00000       0.00000  
topohru00329           0.13721      10.00000      10.00000     121.00000       0.00000  
topohru00330           0.22164      10.00000      10.00000     121.00000       0.00000  
topohru00331           0.23466      10.00000      10.00000     121.00000       0.00000  