weather-wgn.cli: written by SWAT+ editor v3.0.1 on 2024-10-31 16:57 for SWAT+ rev.61.0.1
Breda                          41.75000       2.56000     169.00000        22  
 tmp_max_ave   tmp_min_ave    tmp_max_sd    tmp_min_sd       pcp_ave        pcp_sd      pcp_skew       wet_dry       wet_wet      pcp_days       pcp_hhr       slr_ave       dew_ave       wnd_ave  
    14.56000       1.83000       3.29000       3.13000      53.41000       9.87000      13.79000       0.16000       0.46000       6.73000       0.00000       7.62000       0.83000       1.77000  
    15.63000       2.51000       3.70000       3.30000      49.38000       5.82000       4.16000       0.16000       0.51000       6.91000       0.00000      10.70000       0.83000       1.82000  
    18.36000       5.07000       3.88000       3.22000      66.68000       7.86000       5.69000       0.20000       0.50000       8.95000       0.00000      14.83000       0.79000       1.91000  
    20.65000       7.58000       4.12000       2.70000      68.69000       7.28000       6.02000       0.22000       0.49000       9.50000       0.00000      18.97000       0.78000       2.03000  
    24.77000      10.86000       4.23000       2.76000      70.22000       6.63000       4.34000       0.18000       0.51000       8.77000       0.00000      22.76000       0.78000       1.92000  
    29.49000      15.12000       4.05000       2.67000      33.74000       4.65000       5.46000       0.13000       0.37000       5.23000       0.00000      25.51000       0.74000       1.79000  
    31.86000      17.49000       3.27000       2.09000      30.17000       5.51000       8.92000       0.11000       0.31000       4.00000       0.00000      24.91000       0.72000       1.67000  
    31.40000      17.33000       3.48000       2.18000      59.22000      10.12000      11.40000       0.16000       0.36000       6.18000       0.00000      21.81000       0.74000       1.56000  
    27.60000      14.28000       3.37000       2.83000      74.35000       9.33000       5.36000       0.18000       0.48000       7.36000       0.00000      16.53000       0.81000       1.55000  
    23.54000      10.84000       3.62000       3.31000      94.00000      10.46000       5.01000       0.18000       0.55000       8.36000       0.00000      11.85000       0.86000       1.62000  
    17.98000       5.74000       3.17000       3.82000      70.76000       8.58000       6.03000       0.17000       0.51000       8.14000       0.00000       8.08000       0.86000       1.54000  
    14.76000       2.46000       2.97000       3.32000      35.39000       5.64000       9.32000       0.13000       0.43000       5.68000       0.00000       6.57000       0.87000       1.60000  
Dosrius                        41.62000       2.45000     460.00000        22  
 tmp_max_ave   tmp_min_ave    tmp_max_sd    tmp_min_sd       pcp_ave        pcp_sd      pcp_skew       wet_dry       wet_wet      pcp_days       pcp_hhr       slr_ave       dew_ave       wnd_ave  
    11.18000       3.82000       3.24000       2.80000      52.97000       8.04000       9.40000       0.22000       0.52000       9.45000       0.00000       7.61000       0.75000       1.00000  
    11.74000       3.91000       3.64000       3.16000      52.27000       6.05000       4.85000       0.27000       0.54000      10.36000       0.00000      10.56000       0.75000       1.05000  
    13.88000       5.92000       3.41000       2.93000      66.19000       8.06000       7.45000       0.25000       0.53000      10.32000       0.00000      14.49000       0.74000       1.17000  
    16.09000       8.12000       3.40000       2.61000      73.00000       8.22000       7.44000       0.25000       0.59000      11.59000       0.00000      18.47000       0.73000       1.19000  
    19.76000      11.28000       3.81000       2.90000      60.37000       6.32000       5.22000       0.23000       0.57000      11.05000       0.00000      22.20000       0.72000       1.13000  
    24.39000      15.64000       3.73000       2.94000      27.70000       3.58000       5.81000       0.14000       0.45000       6.64000       0.00000      25.07000       0.67000       1.16000  
    26.38000      17.81000       2.96000       2.18000      27.18000       3.68000       5.33000       0.15000       0.31000       5.41000       0.00000      24.56000       0.69000       1.18000  
    26.72000      18.19000       3.16000       2.32000      39.82000       5.05000       5.96000       0.21000       0.36000       7.55000       0.00000      21.13000       0.71000       1.14000  
    22.94000      15.09000       2.83000       2.50000      64.83000       8.56000       8.99000       0.31000       0.56000      12.00000       0.00000      15.79000       0.78000       1.03000  
    19.58000      12.25000       3.33000       3.04000      99.45000      10.07000       4.65000       0.34000       0.57000      13.95000       0.00000      11.25000       0.80000       0.98000  
    14.61000       7.48000       3.07000       3.29000      69.09000       7.99000       4.87000       0.27000       0.53000      11.05000       0.00000       8.05000       0.77000       0.96000  
    11.85000       4.86000       2.98000       2.95000      35.90000       5.96000      10.05000       0.22000       0.52000      10.23000       0.00000       6.69000       0.75000       0.95000  
Fogars                         41.74000       2.69000      36.00000        22  
 tmp_max_ave   tmp_min_ave    tmp_max_sd    tmp_min_sd       pcp_ave        pcp_sd      pcp_skew       wet_dry       wet_wet      pcp_days       pcp_hhr       slr_ave       dew_ave       wnd_ave  
    14.74000       0.11000       3.14000       3.50000      40.71000       5.94000       7.04000       0.22000       0.55000       9.23000       0.00000       7.62000       0.83000       1.77000  
    16.34000       1.98000       3.35000       3.44000      34.82000       4.31000       4.83000       0.18000       0.55000       7.68000       0.00000      10.70000       0.83000       1.82000  
    17.60000       3.38000       2.97000       3.00000      43.70000       5.31000       6.73000       0.19000       0.53000       8.45000       0.00000      14.83000       0.79000       1.91000  
    19.60000       6.24000       3.49000       3.31000      56.58000       6.98000       6.78000       0.26000       0.56000       9.95000       0.00000      18.97000       0.78000       2.03000  
    23.73000       9.86000       3.57000       2.78000      53.54000       5.89000       5.64000       0.20000       0.59000       9.68000       0.00000      22.76000       0.78000       1.92000  
    28.57000      14.13000       3.45000       2.50000      26.49000       3.83000       5.80000       0.14000       0.47000       5.73000       0.00000      25.51000       0.74000       1.79000  
    31.14000      16.68000       2.05000       1.90000      21.24000       3.81000       6.92000       0.12000       0.38000       4.50000       0.00000      24.91000       0.72000       1.67000  
    31.22000      16.76000       2.56000       2.20000      36.26000       4.73000       4.98000       0.16000       0.48000       6.59000       0.00000      21.81000       0.74000       1.56000  
    27.52000      14.15000       3.00000       2.78000      54.32000       7.11000       6.45000       0.22000       0.50000       8.59000       0.00000      16.53000       0.81000       1.55000  
    23.25000      10.23000       2.96000       3.27000      69.26000       9.16000       6.96000       0.18000       0.56000       8.09000       0.00000      11.85000       0.86000       1.62000  
    18.09000       4.64000       2.99000       4.06000      61.65000       8.10000       6.03000       0.25000       0.53000       9.55000       0.00000       8.08000       0.86000       1.54000  
    15.98000       1.78000       2.87000       3.30000      27.80000       4.51000       8.49000       0.21000       0.52000       9.68000       0.00000       6.57000       0.87000       1.60000  
Malgrat                        41.65000       2.76000       2.00000        22  
 tmp_max_ave   tmp_min_ave    tmp_max_sd    tmp_min_sd       pcp_ave        pcp_sd      pcp_skew       wet_dry       wet_wet      pcp_days       pcp_hhr       slr_ave       dew_ave       wnd_ave  
    13.91000       3.16000       2.59000       3.19000      43.56000       5.74000       6.82000       0.19000       0.47000       7.82000       0.00000       7.62000       0.78000       1.77000  
    14.17000       3.72000       2.76000       3.41000      42.67000       4.71000       4.81000       0.21000       0.49000       8.55000       0.00000      10.70000       0.77000       1.82000  
    16.00000       5.77000       2.36000       3.12000      49.58000       5.86000       5.84000       0.25000       0.48000       9.50000       0.00000      14.83000       0.78000       1.91000  
    18.07000       8.36000       2.41000       2.70000      59.72000       7.32000       7.02000       0.22000       0.58000      10.27000       0.00000      18.97000       0.80000       2.03000  
    21.38000      11.64000       2.64000       2.56000      49.16000       5.11000       4.94000       0.19000       0.56000       9.68000       0.00000      22.76000       0.80000       1.92000  
    25.75000      15.87000       2.51000       2.52000      26.73000       4.00000       7.11000       0.14000       0.38000       5.82000       0.00000      25.51000       0.77000       1.79000  
    28.33000      18.49000       2.04000       1.93000      20.55000       3.83000      10.01000       0.10000       0.36000       4.09000       0.00000      24.91000       0.74000       1.67000  
    28.85000      18.73000       1.98000       1.97000      33.91000       5.21000       7.41000       0.16000       0.41000       6.45000       0.00000      21.81000       0.74000       1.56000  
    25.88000      15.87000       2.38000       2.56000      75.86000       9.73000       6.62000       0.22000       0.47000       8.86000       0.00000      16.53000       0.77000       1.55000  
    22.30000      12.51000       2.70000       3.40000      90.96000      10.43000       6.64000       0.24000       0.52000      10.09000       0.00000      11.85000       0.81000       1.62000  
    17.66000       7.30000       2.58000       3.86000      66.45000       8.13000       5.68000       0.23000       0.48000       9.32000       0.00000       8.08000       0.79000       1.54000  
    14.82000       4.16000       2.48000       3.41000      33.14000       4.57000       6.98000       0.19000       0.42000       7.82000       0.00000       6.57000       0.80000       1.60000  
PSesolles                      41.77000       2.44000    1668.00000        22  
 tmp_max_ave   tmp_min_ave    tmp_max_sd    tmp_min_sd       pcp_ave        pcp_sd      pcp_skew       wet_dry       wet_wet      pcp_days       pcp_hhr       slr_ave       dew_ave       wnd_ave  
     4.91000      -1.05000       4.58000       3.99000      76.43000      14.07000      10.32000       0.18000       0.45000       7.33000       0.00000       4.47000       0.68000       0.87000  
     5.22000      -1.32000       4.60000       4.00000      41.98000       5.16000       5.76000       0.19000       0.53000       8.50000       0.00000      11.11000       0.71000       0.95000  
     6.33000      -0.17000       4.34000       3.40000     123.66000      14.85000       6.25000       0.24000       0.64000      11.75000       0.00000      13.79000       0.77000       1.11000  
     8.79000       2.09000       4.13000       3.29000     127.81000      14.40000       8.78000       0.29000       0.61000      13.00000       0.00000      16.49000       0.79000       1.28000  
    12.52000       5.22000       4.38000       3.55000      74.27000       5.87000       3.62000       0.27000       0.58000      12.17000       0.00000      19.75000       0.78000       1.27000  
    17.85000      10.27000       4.39000       3.80000      53.59000       5.01000       3.97000       0.19000       0.57000       9.58000       0.00000      22.89000       0.73000       1.25000  
    21.39000      13.09000       3.66000       3.03000      40.89000       4.95000       7.05000       0.24000       0.42000       8.83000       0.00000      22.93000       0.71000       1.30000  
    20.43000      12.70000       3.91000       3.06000      58.60000       5.71000       3.69000       0.27000       0.49000      10.75000       0.00000      19.36000       0.73000       1.24000  
    16.01000       9.27000       3.48000       2.90000      76.98000       7.87000       5.23000       0.32000       0.57000      13.00000       0.00000      14.34000       0.82000       1.08000  
    12.79000       6.71000       3.67000       3.30000     119.43000      12.96000       5.48000       0.23000       0.71000      13.25000       0.00000      11.09000       0.80000       1.08000  
     7.62000       1.90000       4.06000       3.77000     167.51000      17.88000       5.13000       0.25000       0.61000      11.83000       0.00000       7.96000       0.77000       0.91000  
     6.86000       1.05000       3.96000       3.49000      33.70000       6.47000      11.69000       0.15000       0.43000       6.75000       0.00000       7.47000       0.66000       0.88000  
PalauTord                      41.68000       2.45000     208.00000        22  
 tmp_max_ave   tmp_min_ave    tmp_max_sd    tmp_min_sd       pcp_ave        pcp_sd      pcp_skew       wet_dry       wet_wet      pcp_days       pcp_hhr       slr_ave       dew_ave       wnd_ave  
    12.44000       3.32000       2.88000       3.05000      54.35000      10.87000      14.86000       0.14000       0.50000       6.59000       0.00000       7.61000       0.75000       1.00000  
    13.72000       3.98000       3.39000       3.29000      47.85000       5.61000       4.48000       0.18000       0.49000       7.64000       0.00000      10.56000       0.75000       1.05000  
    16.73000       6.18000       3.46000       3.09000      60.35000       6.99000       5.94000       0.20000       0.53000       9.45000       0.00000      14.49000       0.74000       1.17000  
    19.74000       8.79000       3.76000       2.60000      70.96000       7.21000       6.09000       0.25000       0.56000      10.95000       0.00000      18.47000       0.73000       1.19000  
    23.80000      12.15000       4.10000       2.72000      66.16000       6.18000       4.27000       0.21000       0.48000       9.73000       0.00000      22.20000       0.72000       1.13000  
    28.77000      16.58000       3.92000       2.74000      36.15000       4.49000       5.04000       0.11000       0.47000       5.73000       0.00000      25.07000       0.67000       1.16000  
    31.04000      19.29000       3.12000       2.05000      30.84000       4.62000       6.53000       0.12000       0.33000       5.09000       0.00000      24.56000       0.69000       1.18000  
    30.54000      19.21000       3.38000       2.28000      39.91000       4.40000       4.57000       0.17000       0.40000       6.86000       0.00000      21.13000       0.71000       1.14000  
    26.12000      15.92000       3.05000       2.56000      71.34000       8.53000       6.26000       0.20000       0.46000       8.77000       0.00000      15.79000       0.78000       1.03000  
    21.77000      12.56000       3.29000       3.06000      98.89000      10.40000       4.65000       0.18000       0.57000       9.09000       0.00000      11.25000       0.80000       0.98000  
    16.07000       7.36000       2.97000       3.63000      71.19000       8.74000       5.39000       0.18000       0.52000       8.36000       0.00000       8.05000       0.77000       0.96000  
    12.96000       4.21000       2.59000       3.18000      36.78000       6.61000      11.33000       0.12000       0.44000       5.91000       0.00000       6.69000       0.75000       0.95000  
StColo                         41.86000       2.66000     162.00000        22  
 tmp_max_ave   tmp_min_ave    tmp_max_sd    tmp_min_sd       pcp_ave        pcp_sd      pcp_skew       wet_dry       wet_wet      pcp_days       pcp_hhr       slr_ave       dew_ave       wnd_ave  
    14.63000       2.45000       3.39000       3.14000      51.56000       7.42000       7.87000       0.16000       0.53000       7.59000       0.00000       7.57000       0.77000       1.78000  
    15.68000       2.99000       3.76000       3.30000      51.40000       6.13000       5.07000       0.18000       0.51000       7.77000       0.00000      10.49000       0.76000       1.92000  
    18.00000       5.38000       3.77000       3.24000      70.94000       8.05000       6.71000       0.21000       0.57000       9.86000       0.00000      14.26000       0.73000       2.35000  
    20.39000       7.82000       4.00000       2.79000      82.62000       8.27000       6.62000       0.23000       0.60000      11.23000       0.00000      17.93000       0.72000       2.63000  
    24.24000      11.08000       4.12000       2.80000      78.53000       6.88000       4.14000       0.22000       0.61000      11.41000       0.00000      21.19000       0.72000       2.58000  
    29.26000      15.35000       3.84000       2.73000      46.70000       6.62000       7.38000       0.13000       0.50000       6.91000       0.00000      24.48000       0.66000       2.70000  
    31.61000      17.76000       3.35000       2.29000      30.66000       4.96000      11.78000       0.14000       0.34000       5.23000       0.00000      24.07000       0.64000       2.81000  
    31.28000      17.73000       3.65000       2.29000      55.15000       6.51000       7.36000       0.17000       0.48000       7.36000       0.00000      21.11000       0.67000       2.63000  
    27.41000      14.87000       3.47000       2.79000      67.54000       8.23000       8.25000       0.23000       0.51000       9.82000       0.00000      16.06000       0.74000       2.12000  
    23.41000      11.74000       3.58000       3.47000      89.50000       9.15000       4.70000       0.17000       0.58000       8.95000       0.00000      11.53000       0.78000       1.98000  
    17.91000       6.33000       3.45000       4.02000      76.11000       8.90000       5.18000       0.19000       0.59000       9.77000       0.00000       7.99000       0.79000       1.85000  
    14.68000       3.01000       3.11000       3.43000      33.79000       5.59000      10.59000       0.13000       0.52000       7.09000       0.00000       6.56000       0.81000       1.62000  
StHilari                       41.86000       2.66000     798.00000        22  
 tmp_max_ave   tmp_min_ave    tmp_max_sd    tmp_min_sd       pcp_ave        pcp_sd      pcp_skew       wet_dry       wet_wet      pcp_days       pcp_hhr       slr_ave       dew_ave       wnd_ave  
    10.32000       0.13000       3.80000       3.14000      31.90000       6.11000      10.16000       0.16000       0.35000       5.07000       0.00000       7.57000       0.73000       1.32000  
    11.34000       0.65000       4.37000       3.43000      39.21000       5.59000       5.50000       0.15000       0.48000       6.00000       0.00000      10.49000       0.67000       2.02000  
    13.00000       2.26000       4.00000       3.09000      95.37000      12.24000       6.12000       0.21000       0.59000       9.50000       0.00000      14.26000       0.75000       1.72000  
    15.65000       4.85000       4.08000       2.93000      95.91000       9.64000       6.57000       0.26000       0.60000      11.00000       0.00000      17.93000       0.74000       1.72000  
    19.49000       7.50000       4.23000       3.13000      73.84000       6.51000       4.17000       0.26000       0.52000      10.00000       0.00000      21.19000       0.75000       1.60000  
    24.32000      11.35000       4.28000       2.74000      54.50000       6.49000       5.84000       0.20000       0.44000       7.64000       0.00000      24.48000       0.69000       1.48000  
    27.64000      13.93000       3.66000       2.11000      33.00000       4.19000       6.28000       0.18000       0.30000       6.21000       0.00000      24.07000       0.68000       1.44000  
    27.56000      14.09000       3.75000       2.32000      58.29000       6.62000       5.41000       0.19000       0.41000       7.29000       0.00000      21.11000       0.73000       1.37000  
    22.96000      11.16000       3.50000       2.65000      77.41000       8.64000       5.99000       0.26000       0.46000       9.86000       0.00000      16.06000       0.81000       1.29000  
    19.06000       8.20000       3.89000       3.39000      89.49000       9.68000       4.98000       0.19000       0.56000       9.43000       0.00000      11.53000       0.82000       1.54000  
    13.75000       3.97000       3.80000       3.89000     114.06000      13.19000       5.08000       0.23000       0.50000       9.21000       0.00000       7.99000       0.79000       1.89000  
    11.54000       1.68000       3.60000       3.36000      32.80000       6.69000      13.90000       0.10000       0.43000       5.00000       0.00000       6.56000       0.76000       2.27000  
Tagam                          41.75000       2.30000    1030.00000        22  
 tmp_max_ave   tmp_min_ave    tmp_max_sd    tmp_min_sd       pcp_ave        pcp_sd      pcp_skew       wet_dry       wet_wet      pcp_days       pcp_hhr       slr_ave       dew_ave       wnd_ave  
     8.73000       1.75000       3.91000       3.25000      46.01000       6.71000       8.57000       0.17000       0.50000       7.50000       0.00000       4.47000       0.72000       0.87000  
     9.11000       1.69000       4.24000       3.52000      46.56000       5.54000       5.93000       0.19000       0.58000       8.59000       0.00000      11.11000       0.73000       0.95000  
    11.63000       3.53000       3.96000       3.37000      64.03000       7.49000       6.98000       0.22000       0.56000      10.32000       0.00000      13.79000       0.72000       1.11000  
    13.76000       5.87000       3.72000       3.24000      84.10000       7.73000       4.46000       0.25000       0.60000      11.59000       0.00000      16.49000       0.73000       1.28000  
    17.64000       9.20000       4.34000       3.49000      74.27000       6.76000       4.59000       0.26000       0.55000      11.59000       0.00000      19.75000       0.71000       1.27000  
    22.68000      13.70000       4.28000       3.64000      40.39000       4.48000       4.95000       0.17000       0.46000       7.09000       0.00000      22.89000       0.65000       1.25000  
    25.25000      15.79000       3.55000       2.83000      35.50000       4.39000       5.46000       0.16000       0.35000       5.95000       0.00000      22.93000       0.65000       1.30000  
    25.36000      16.14000       3.73000       2.90000      48.71000       5.23000       4.84000       0.21000       0.44000       8.27000       0.00000      19.36000       0.69000       1.24000  
    21.00000      12.67000       3.41000       2.67000      64.74000       7.45000       6.78000       0.27000       0.44000       9.91000       0.00000      14.34000       0.77000       1.08000  
    17.17000       9.93000       3.93000       3.30000      88.56000       8.96000       4.53000       0.24000       0.56000      10.77000       0.00000      11.09000       0.79000       1.08000  
    11.88000       5.10000       3.60000       3.37000      76.73000       8.98000       5.20000       0.21000       0.52000       9.36000       0.00000       7.96000       0.76000       0.91000  
     9.44000       2.84000       3.70000       3.19000      36.25000       5.28000       8.75000       0.15000       0.54000       7.82000       0.00000       7.47000       0.72000       0.88000  
Viladrau                       41.84000       2.42000     953.00000        22  
 tmp_max_ave   tmp_min_ave    tmp_max_sd    tmp_min_sd       pcp_ave        pcp_sd      pcp_skew       wet_dry       wet_wet      pcp_days       pcp_hhr       slr_ave       dew_ave       wnd_ave  
     9.40000       0.44000       4.00000       3.19000      64.27000      10.78000      10.83000       0.22000       0.58000      10.18000       0.00000       7.47000       0.74000       1.92000  
    10.21000       0.61000       4.31000       3.46000      66.65000       9.43000       8.40000       0.25000       0.58000      10.73000       0.00000      10.42000       0.73000       2.05000  
    12.69000       2.71000       4.23000       3.39000     102.74000      13.99000       8.85000       0.21000       0.64000      11.23000       0.00000      14.52000       0.72000       2.11000  
    15.09000       4.89000       4.18000       2.97000     104.54000       9.04000       4.20000       0.29000       0.66000      13.91000       0.00000      17.73000       0.73000       2.14000  
    19.14000       7.83000       4.32000       3.27000      89.07000       7.51000       4.22000       0.27000       0.65000      13.55000       0.00000      21.31000       0.73000       2.04000  
    24.24000      11.80000       4.10000       3.39000      58.24000       5.72000       3.81000       0.20000       0.52000       9.14000       0.00000      24.32000       0.70000       1.94000  
    27.20000      13.95000       3.49000       2.59000      42.55000       5.06000       5.84000       0.20000       0.49000       8.91000       0.00000      24.30000       0.69000       1.95000  
    27.28000      14.21000       3.69000       2.79000      64.97000       6.69000       5.09000       0.26000       0.57000      11.36000       0.00000      21.00000       0.72000       1.92000  
    22.16000      10.90000       3.38000       2.75000      81.50000       9.91000       7.97000       0.34000       0.66000      15.00000       0.00000      15.59000       0.80000       1.83000  
    18.37000       8.14000       3.98000       3.43000     111.69000      12.55000       6.69000       0.34000       0.66000      15.32000       0.00000      11.36000       0.81000       1.95000  
    12.65000       3.60000       3.74000       3.57000     107.18000      14.01000       7.30000       0.33000       0.57000      13.36000       0.00000       7.78000       0.79000       2.09000  
    10.07000       1.33000       3.79000       3.14000      45.39000       6.58000       8.30000       0.26000       0.50000      10.86000       0.00000       6.46000       0.75000       2.31000  
Vilobi                         41.88000       2.74000     117.00000        22  
 tmp_max_ave   tmp_min_ave    tmp_max_sd    tmp_min_sd       pcp_ave        pcp_sd      pcp_skew       wet_dry       wet_wet      pcp_days       pcp_hhr       slr_ave       dew_ave       wnd_ave  
    14.14000      -1.19000       3.50000       3.59000      46.65000       6.01000       5.95000       0.39000       0.48000      12.95000       0.00000       6.92000       0.83000       1.78000  
    14.98000      -0.34000       3.81000       3.78000      45.70000       5.25000       4.89000       0.33000       0.49000      11.36000       0.00000       9.82000       0.80000       1.92000  
    17.29000       1.98000       3.55000       3.77000      58.58000       6.13000       6.01000       0.33000       0.53000      12.55000       0.00000      13.87000       0.79000       2.35000  
    19.67000       4.47000       3.67000       3.16000      69.72000       7.17000       5.92000       0.27000       0.61000      12.41000       0.00000      17.73000       0.79000       2.63000  
    23.83000       7.87000       3.95000       2.89000      65.19000       5.82000       4.23000       0.26000       0.58000      12.09000       0.00000      21.10000       0.78000       2.58000  
    28.56000      12.17000       3.79000       2.67000      43.60000       5.89000       7.09000       0.16000       0.46000       7.14000       0.00000      23.47000       0.74000       2.70000  
    30.75000      14.81000       3.03000       2.13000      30.71000       5.04000      10.64000       0.15000       0.38000       5.86000       0.00000      22.99000       0.72000       2.81000  
    31.14000      15.02000       3.26000       2.20000      44.48000       5.32000       7.34000       0.21000       0.40000       7.95000       0.00000      20.45000       0.75000       2.63000  
    27.15000      12.03000       3.15000       3.14000      64.71000       8.61000       8.57000       0.26000       0.51000      10.27000       0.00000      15.38000       0.80000       2.12000  
    23.28000       8.57000       3.62000       3.99000      76.16000       8.37000       4.90000       0.27000       0.53000      10.77000       0.00000      10.92000       0.83000       1.98000  
    18.06000       2.90000       3.30000       4.54000      67.23000       8.14000       5.37000       0.36000       0.52000      12.59000       0.00000       7.40000       0.85000       1.85000  
    14.78000      -0.39000       3.08000       3.93000      30.36000       4.18000       7.45000       0.35000       0.46000      12.50000       0.00000       6.04000       0.85000       1.62000  
