wnd.cli: Wind speed file names - file written by SWAT+ editor 2024-07-19 18:08:07.466772
filename
Dosrius_w.wnd
StHilari_w.wnd
Vilobi_w.wnd
